98

 C            1.754241            2.821502            4.994085
 C            2.525084            2.394973            3.868160
 C            1.916118            2.126666            2.671329
 C            0.495277            2.278138            2.527962
 C           -0.157063            2.019214            1.290428
 C           -1.522317            2.175990            1.119191
 C           -2.277229            2.645321            2.259489
 C           -1.665715            2.877553            3.480339
 C           -0.267359            2.704335            3.645800
 C            0.396687            2.968601            4.890304
 C           -3.696498            2.950654            2.116411
 C           -4.285583            2.924578            0.908853
 C           -3.559920            2.497974           -0.285049
 C           -4.215124            2.553654           -1.500139
 C           -3.596323            2.077461           -2.683611
 C           -4.241503            2.196424           -3.959819
 C           -3.639131            1.711364           -5.089384
 C           -2.363158            1.078173           -5.000685
 C           -1.730779            0.951659           -3.792007
 C           -2.326357            1.453394           -2.584396
 C           -1.676069            1.356300           -1.303074
 C           -0.456067            0.506979           -1.294095
 C            0.756718            1.008799           -1.663881
 C            1.946624            0.183012           -1.694804
 C            3.191142            0.703780           -2.014326
 C            4.347397           -0.121960           -2.032292
 C            5.627685            0.398478           -2.362435
 C            6.748031           -0.417904           -2.381835
 C            8.063270            0.093845           -2.725836
 C            9.145724           -0.724993           -2.748758
 C            9.016204           -2.127455           -2.423788
 C            7.809304           -2.651603           -2.090274
 C            6.618394           -1.820681           -2.057716
 C            5.374808           -2.338969           -1.731049
 C            4.218714           -1.513294           -1.712122
 C            2.937590           -2.034990           -1.387228
 C            1.816314           -1.219711           -1.376279
 C            0.498563           -1.733850           -1.063885
 C           -0.594328           -0.920752           -1.003769
 C           -1.957162           -1.476024           -0.794484
 C           -2.644889           -1.434392            0.417551
 C           -4.067826           -1.698391            0.387174
 C           -4.684464           -2.174867           -0.753082
 C           -3.944016           -2.393369           -1.943112
 C           -4.563430           -2.960012           -3.106657
 C           -3.844047           -3.141658           -4.257155
 C           -2.470051           -2.759394           -4.305480
 C           -1.859362           -2.213498           -3.207026
 C           -2.576169           -2.017351           -1.977298
 C           -4.894429           -1.395366            1.553063
 C           -4.352076           -0.965486            2.705655
 C           -2.903691           -0.897231            2.868564
 C           -2.379499           -0.651410            4.126423
 C           -0.981235           -0.709418            4.361547
 C           -0.414443           -0.485186            5.660692
 C            0.936726           -0.596241            5.853761
 C            1.799645           -0.927956            4.763339
 C            1.287294           -1.134371            3.510282
 C           -0.125362           -1.029750            3.275742
 C           -0.681097           -1.246817            1.984328
 C           -2.041701           -1.166305            1.740466
 C           -2.213299            1.976525           -0.174638
 H            2.270477            3.022649            5.930887
 H            3.601357            2.285029            3.986609
 H            2.492783            1.789998            1.810766
 H            0.485469            1.700846            0.473474
 H           -2.253831            3.216845            4.332434
 H           -0.201641            3.286701            5.741622
 H           -4.243845            3.228880            3.016713
 H           -5.332938            3.198294            0.778615
 H           -5.225196            2.958348           -1.563304
 H           -5.216005            2.679634           -4.005962
 H           -4.115415            1.796256           -6.064249
 H           -1.905801            0.695747           -5.911655
 H           -0.755884            0.465873           -3.739203
 H            0.863323            2.060031           -1.940947
 H            3.298701            1.761291           -2.255743
 H            5.716381            1.457261           -2.605177
 H            8.146198            1.153419           -2.965213
 H           10.135451           -0.352952           -3.009944
 H            9.914570           -2.742335           -2.455597
 H            7.696244           -3.705764           -1.839664
 H            5.268598           -3.395617           -1.486103
 H            2.849356           -3.094048           -1.144815
 H            0.404122           -2.807299           -0.885265
 H           -5.754865           -2.379583           -0.756939
 H           -5.613866           -3.240800           -3.050356
 H           -4.300041           -3.573796           -5.145768
 H           -1.919379           -2.908564           -5.232780
 H           -0.808625           -1.926453           -3.260528
 H           -5.972542           -1.507517            1.436320
 H           -4.967173           -0.691352            3.562449
 H           -3.040817           -0.429919            4.963335
 H           -1.080915           -0.227220            6.481091
 H            1.378869           -0.431603            6.834555
 H            2.868863           -1.004750            4.951390
 H            1.937642           -1.373695            2.670088
 H            0.021591           -1.498623            1.193099

