98

 C            3.899809           -8.121863           -1.773123
 C            2.877133           -7.272058           -2.300384
 C            2.743400           -5.985839           -1.851666
 C            3.630361           -5.469340           -0.846934
 C            3.512836           -4.140080           -0.362506
 C            4.373073           -3.644614            0.605282
 C            5.405106           -4.502984            1.126110
 C            5.528438           -5.803588            0.664456
 C            4.649234           -6.313407           -0.325847
 C            4.760271           -7.659139           -0.814566
 C            6.315795           -3.989158            2.144826
 C            6.208520           -2.731212            2.615125
 C            5.180058           -1.818339            2.125565
 C            5.090113           -0.528429            2.623884
 C            4.101280            0.370454            2.148202
 C            3.998664            1.712828            2.648339
 C            3.053481            2.568554            2.155586
 C            2.142594            2.134495            1.133450
 C            1.171650            3.117021            0.599096
 C            1.623926            4.222942           -0.056836
 C            0.713476            5.214929           -0.590545
 C            1.169939            6.343191           -1.255086
 C            0.261810            7.311444           -1.759705
 C            0.717329            8.473170           -2.439643
 C           -0.177350            9.411506           -2.929326
 C            0.269440           10.598953           -3.636774
 C           -0.623581           11.500920           -4.117723
 C           -2.043159           11.305790           -3.927890
 C           -2.509574           10.215289           -3.267696
 C           -1.597415            9.213960           -2.742796
 C           -2.053360            8.085431           -2.079709
 C           -1.146363            7.112476           -1.579245
 C           -1.601626            5.948079           -0.905038
 C           -0.704942            5.010570           -0.414793
 C           -1.146778            3.816923            0.277078
 C           -0.259304            2.905853            0.766966
 C           -0.755125            1.703362            1.475259
 C           -0.483936            1.560591            2.877636
 C           -0.968994            0.484533            3.567633
 C           -1.751314           -0.520256            2.902884
 C           -2.282722           -1.636678            3.598487
 C           -3.033090           -2.597387            2.939025
 C           -3.584722           -3.737205            3.665188
 C           -4.309514           -4.686852            3.041914
 C           -4.575355           -4.625923            1.607794
 C           -5.308909           -5.621928            0.983446
 C           -5.572999           -5.570364           -0.410067
 C           -6.327834           -6.594979           -1.075387
 C           -6.569771           -6.515763           -2.420239
 C           -6.073805           -5.411702           -3.182536
 C           -5.348288           -4.421000           -2.577751
 C           -5.076402           -4.474829           -1.168525
 C           -4.323656           -3.462947           -0.517094
 C           -4.064234           -3.517959            0.843569
 C           -3.278213           -2.477909            1.525602
 C           -2.765160           -1.385132            0.843924
 C           -2.003172           -0.389327            1.509548
 C           -1.488071            0.751621            0.809691
 C            2.204677            0.850552            0.650740
 C            3.192704           -0.065109            1.144819
 C            3.291554           -1.391919            0.648305
 C            4.259191           -2.268881            1.114719
 H            3.975378           -9.140506           -2.150530
 H            2.210684           -7.672716           -3.062507
 H            1.965811           -5.331654           -2.243713
 H            2.720333           -3.508742           -0.769613
 H            6.307193           -6.455665            1.059200
 H            5.541125           -8.297038           -0.403609
 H            7.086727           -4.668874            2.508986
 H            6.887453           -2.349221            3.377900
 H            5.785320           -0.185234            3.389749
 H            4.692594            2.030897            3.425702
 H            2.969703            3.590400            2.524418
 H            2.692427            4.389284           -0.201840
 H            2.238569            6.499749           -1.399816
 H            1.789645            8.615453           -2.571601
 H            1.342354           10.735681           -3.766668
 H           -0.299962           12.391052           -4.655083
 H           -2.718347           12.059624           -4.330034
 H           -3.576175           10.057741           -3.112358
 H           -3.121843            7.928998           -1.933413
 H           -2.673849            5.800519           -0.777987
 H           -2.221343            3.672515            0.399563
 H            0.116030            2.326540            3.369114
 H           -0.769934            0.366449            4.632463
 H           -2.092004           -1.726517            4.667951
 H           -3.384678           -3.785913            4.735970
 H           -4.723114           -5.535720            3.587054
 H           -5.694319           -6.463460            1.558693
 H           -6.698708           -7.431503           -0.485129
 H           -7.140836           -7.287512           -2.934178
 H           -6.286399           -5.379977           -4.249961
 H           -4.964425           -3.576747           -3.148627
 H           -3.946980           -2.631260           -1.115781
 H           -2.942013           -1.271428           -0.227284
 H           -1.692166            0.847167           -0.255997
 H            1.507310            0.507481           -0.113747
 H            2.581416           -1.711296           -0.117405

