90

 C           -2.493507           -3.721426            4.949302
 C           -2.109047           -5.075914            4.738682
 C           -1.494421           -5.447984            3.568552
 C           -1.226646           -4.490281            2.540464
 C           -1.608538           -3.141231            2.754876
 C           -2.249434           -2.778324            3.982506
 C           -1.355366           -2.158037            1.749781
 C           -0.743938           -2.492662            0.562407
 C           -0.347295           -3.863333            0.326748
 C           -0.586065           -4.848788            1.299945
 C           -0.180754           -6.208608            1.028519
 C            0.421349           -6.552132           -0.141419
 C            0.679899           -5.561841           -1.159403
 C            1.303532           -5.897617           -2.384585
 C            1.538210           -4.921380           -3.339794
 C            1.165239           -3.584624           -3.107425
 C            0.548568           -3.224071           -1.910634
 C            0.295059           -4.218928           -0.916642
 C            0.144556           -1.851177           -1.643007
 C           -0.471120           -1.503313           -0.488066
 C           -0.904290           -0.100174           -0.273261
 C           -2.192619            0.265919           -0.520548
 C           -2.641402            1.631454           -0.333238
 C           -3.952518            2.011334           -0.577383
 C           -4.373170            3.355300           -0.389390
 C           -5.713289            3.757492           -0.638124
 C           -6.113214            5.071128           -0.448353
 C           -7.478458            5.500323           -0.697670
 C           -7.850436            6.791220           -0.503501
 C           -6.893807            7.772134           -0.043006
 C           -5.606124            7.420230            0.203194
 C           -5.155976            6.052503            0.010798
 C           -3.845347            5.672330            0.254565
 C           -3.423010            4.329116            0.061977
 C           -2.082433            3.927682            0.307612
 C           -1.683947            2.612549            0.121330
 C           -0.323044            2.181871            0.373789
 C            0.059858            0.887576            0.191113
 C            1.454488            0.471808            0.482586
 C            1.744598           -0.134923            1.658169
 C            3.105410           -0.516843            2.006894
 C            4.153267           -0.245180            1.074129
 C            5.486273           -0.603477            1.398622
 C            5.758929           -1.222261            2.641830
 C            4.730880           -1.477719            3.535384
 C            3.404013           -1.129026            3.222890
 C            6.531362           -0.325258            0.442504
 C            6.247065            0.266526           -0.748380
 C            4.897872            0.640990           -1.104154
 C            3.860390            0.386479           -0.190889
 C            2.498480            0.753671           -0.511057
 C            2.223182            1.345997           -1.723071
 C            3.259848            1.613101           -2.669218
 C            2.958161            2.234016           -3.923390
 C            3.953169            2.493965           -4.832313
 C            5.301082            2.145715           -4.534537
 C            5.614733            1.549004           -3.338307
 C            4.601758            1.265368           -2.369143
 H           -2.981886           -3.452267            5.884534
 H           -2.311724           -5.807342            5.519319
 H           -1.199754           -6.486051            3.405346
 H           -2.540550           -1.739210            4.130581
 H           -1.665034           -1.129879            1.946511
 H           -0.373430           -6.961032            1.796368
 H            0.724123           -7.580082           -0.338794
 H            1.598163           -6.929425           -2.568348
 H            2.017033           -5.182703           -4.283018
 H            1.365402           -2.833323           -3.870234
 H            0.360281           -1.107735           -2.412927
 H           -2.924433           -0.464913           -0.868667
 H           -4.681703            1.276557           -0.918013
 H           -6.428099            3.011310           -0.983904
 H           -8.188605            4.750524           -1.044126
 H           -8.871361            7.123330           -0.686710
 H           -7.241622            8.794588            0.097550
 H           -4.874683            8.148929            0.550613
 H           -3.117230            6.405376            0.600962
 H           -1.365353            4.674663            0.647683
 H            0.389987            2.932011            0.720211
 H            0.961032           -0.359405            2.384883
 H            6.783060           -1.497412            2.888002
 H            4.943273           -1.954553            4.491821
 H            2.611338           -1.344758            3.938159
 H            7.551541           -0.605252            0.703503
 H            7.040543            0.473685           -1.469777
 H            1.202021            1.628548           -1.985633
 H            1.923239            2.496714           -4.138564
 H            3.730582            2.966880           -5.787493
 H            6.074207            2.360820           -5.270406
 H            6.647428            1.280937           -3.108695

