90

 C            0.777278            2.674913            4.766754
 C            1.251824            1.738979            3.810452
 C            0.677584            1.656494            2.563959
 C           -0.410137            2.495548            2.163967
 C           -0.881150            3.416380            3.142107
 C           -0.270980            3.493670            4.435161
 C           -1.975781            4.283992            2.857275
 C           -2.593315            4.251181            1.631547
 C           -3.718595            5.140458            1.353991
 C           -4.341611            5.144276            0.159294
 C           -3.911013            4.249448           -0.907125
 C           -2.815346            3.360791           -0.661475
 C           -2.404502            2.490271           -1.697294
 C           -3.070020            2.503537           -2.948206
 C           -4.125532            3.371734           -3.164448
 C           -4.547565            4.247155           -2.145660
 C           -1.300906            1.610444           -1.440966
 C           -0.646594            1.591577           -0.238262
 C            0.494770            0.641115           -0.188531
 C            1.749912            1.056565           -0.518775
 C            2.876028            0.143632           -0.513068
 C            4.155749            0.560350           -0.845253
 C            5.249245           -0.347235           -0.827623
 C            6.564966            0.067191           -1.167782
 C            7.623209           -0.828404           -1.152327
 C            8.974733           -0.423029           -1.497352
 C            9.996131           -1.316895           -1.481286
 C            9.762460           -2.696493           -1.119393
 C            8.517624           -3.122976           -0.785755
 C            7.390273           -2.207101           -0.785450
 C            6.111341           -2.621655           -0.446779
 C            5.019097           -1.713114           -0.458682
 C            3.702924           -2.127166           -0.118106
 C            2.643572           -1.233395           -0.143358
 C            1.290704           -1.642604            0.179098
 C            0.250928           -0.763008            0.134768
 C           -1.122761           -1.207515            0.486270
 C           -1.453058           -1.014972            1.800908
 C           -2.718270           -1.424660            2.338992
 C           -3.048171           -1.220523            3.701855
 C           -4.272865           -1.640008            4.190716
 C           -5.200408           -2.271684            3.340648
 C           -4.900084           -2.479312            1.996766
 C           -3.638795           -2.053621            1.469098
 C           -3.292889           -2.251798            0.078703
 C           -2.049062           -1.831150           -0.448149
 C           -1.783120           -2.051238           -1.858178
 C           -0.593223           -1.639809           -2.537852
 C           -0.383107           -1.891006           -3.873148
 C           -1.358284           -2.577218           -4.643612
 C           -2.523468           -2.976663           -4.041941
 C           -2.758364           -2.716469           -2.653622
 C           -3.997581           -3.134617           -2.086544
 C           -4.272454           -2.905678           -0.760981
 C           -5.552653           -3.323967           -0.195062
 C           -5.852795           -3.125435            1.103259
 C           -1.044192            2.462539            0.858517
 C           -2.128781            3.336919            0.611448
 H            1.251372            2.727722            5.744592
 H            2.082194            1.086579            4.078620
 H            1.085211            0.917718            1.877303
 H           -0.658160            4.219755            5.149163
 H           -2.312154            4.971303            3.633602
 H           -4.033527            5.802556            2.161181
 H           -5.181587            5.806826           -0.047918
 H           -2.743868            1.821697           -3.732366
 H           -4.640243            3.384108           -4.124466
 H           -5.380154            4.922456           -2.335798
 H           -0.995292            0.941220           -2.250415
 H            1.942235            2.098502           -0.780833
 H            4.339226            1.597523           -1.126191
 H            6.731143            1.108408           -1.443500
 H            9.135846            0.619791           -1.767949
 H           11.012964           -1.024071           -1.738737
 H           10.614386           -3.374757           -1.123963
 H            8.326590           -4.159491           -0.510495
 H            5.926724           -3.658692           -0.166955
 H            3.536132           -3.167297            0.162441
 H            1.125207           -2.689717            0.438942
 H           -0.748718           -0.534280            2.486146
 H           -2.329731           -0.727969            4.355776
 H           -4.530489           -1.483491            5.237570
 H           -6.158148           -2.595236            3.744926
 H            0.189625           -1.105314           -2.004115
 H            0.537967           -1.566836           -4.356395
 H           -1.166835           -2.773823           -5.696389
 H           -3.292196           -3.500041           -4.609241
 H           -4.722519           -3.634797           -2.728666
 H           -6.257882           -3.803688           -0.874462
 H           -6.808538           -3.435308            1.525286

