74

 C           -5.007771           -5.406849            1.818091
 C           -5.416994           -4.581624            0.814458
 C           -4.543316           -3.547712            0.307376
 C           -4.943749           -2.679820           -0.718099
 C           -4.083516           -1.678399           -1.192552
 C           -4.497200           -0.768846           -2.236314
 C           -3.656424            0.205772           -2.681191
 C           -2.338433            0.343304           -2.128046
 C           -1.902568           -0.502685           -1.146672
 C           -0.526541           -0.370429           -0.609821
 C            0.485422           -1.126815           -1.117272
 C            1.842557           -1.003167           -0.623035
 C            2.876899           -1.776596           -1.126710
 C            4.202904           -1.634814           -0.636286
 C            5.271799           -2.420679           -1.144839
 C            6.562200           -2.272277           -0.660281
 C            7.668695           -3.060417           -1.174233
 C            8.923621           -2.905065           -0.680552
 C            9.188303           -1.951351            0.372599
 C            8.188479           -1.187076            0.881316
 C            6.829286           -1.309247            0.384106
 C            5.794897           -0.533763            0.884869
 C            4.468960           -0.674621            0.394254
 C            3.399648            0.110025            0.904089
 C            2.108868           -0.041470            0.421536
 C            1.001831            0.737402            0.940573
 C           -0.262414            0.583135            0.459160
 C           -1.383556            1.371207            1.025871
 C           -1.627456            2.717838            0.539816
 C           -0.865201            3.295711           -0.485641
 C           -1.129151            4.596196           -0.938688
 C           -0.359717            5.199782           -2.002972
 C           -0.632895            6.465030           -2.427609
 C           -1.693528            7.225716           -1.822560
 C           -2.443308            6.692138           -0.818159
 C           -2.188931            5.351905           -0.340180
 C           -2.952775            4.776102            0.684546
 C           -2.695306            3.470985            1.129801
 C           -3.492658            2.864906            2.171274
 C           -3.239559            1.593273            2.587822
 C           -2.169028            0.832993            2.006866
 C           -2.770825           -1.546676           -0.631389
 C           -2.372422           -2.416104            0.394243
 C           -3.235794           -3.410118            0.876508
 C           -2.842904           -4.305087            1.941290
 C           -3.696904           -5.265214            2.393599
 H           -5.656584           -6.189247            2.208258
 H           -6.407042           -4.676964            0.371070
 H           -5.938660           -2.781479           -1.150548
 H           -5.498871           -0.884480           -2.647887
 H           -3.957726            0.902531           -3.462410
 H           -1.700737            1.141477           -2.508320
 H            0.299876           -1.847843           -1.914813
 H            2.683273           -2.508978           -1.910217
 H            5.060294           -3.147997           -1.928176
 H            7.454141           -3.775272           -1.967451
 H            9.761162           -3.488435           -1.059555
 H           10.210332           -1.870540            0.739267
 H            8.372919           -0.464098            1.674885
 H            5.988250            0.198795            1.668121
 H            3.610911            0.838363            1.686919
 H            1.214183            1.452280            1.737081
 H           -0.053783            2.724167           -0.939836
 H            0.439709            4.611867           -2.452117
 H           -0.060752            6.929368           -3.229124
 H           -1.875804            8.233595           -2.191726
 H           -3.250079            7.256272           -0.352471
 H           -3.760785            5.348426            1.139360
 H           -4.300994            3.452735            2.603977
 H           -3.837687            1.120881            3.366082
 H           -2.005713           -0.183572            2.365254
 H           -1.374252           -2.317931            0.824991
 H           -1.847729           -4.185670            2.367840
 H           -3.412079           -5.944750            3.195179

