90

 C           -6.891255           -8.384918           -2.043347
 C           -7.225417           -7.596927           -3.218595
 C           -6.789030           -6.325335           -3.360982
 C           -5.964956           -5.711003           -2.323888
 N           -5.535674           -4.464300           -2.468660
 C           -4.750608           -3.918879           -1.450216
 C           -4.275243           -2.606276           -1.589013
 C           -3.481076           -2.054780           -0.572488
 N           -2.991983           -0.755770           -0.726460
 C           -2.235030           -0.256763            0.242649
 C           -1.674285            1.080665            0.112982
 C           -0.892593            1.598100            1.095182
 C           -0.299495            2.946987            0.942727
 C           -1.108468            4.036415            0.820222
 C           -0.564608            5.362544            0.610743
 C           -1.385568            6.469915            0.459566
 C           -0.837046            7.758701            0.226871
 C           -1.668387            8.899690            0.063359
 C           -1.123243           10.154174           -0.158085
 C           -1.957005           11.332828           -0.318772
 C           -1.403023           12.554519           -0.524985
 C            0.032544           12.710634           -0.594714
 C            0.853408           11.638522           -0.456768
 C            0.312725           10.309459           -0.230073
 C            1.133062            9.202498           -0.079678
 C            0.586440            7.911274            0.153261
 C            1.416227            6.769645            0.315152
 C            0.869136            5.515000            0.540266
 C            1.696121            4.335180            0.701152
 C            1.148439            3.102016            0.890707
 C            2.010725            1.906313            1.039016
 C            1.969176            0.886891            0.143767
 C            2.778485           -0.307825            0.346315
 N            2.700814           -1.318296           -0.510848
 C            3.452979           -2.464571           -0.244563
 C            3.357063           -3.560732           -1.115876
 C            4.078449           -4.729573           -0.828934
 N            3.956522           -5.828817           -1.682668
 C            4.627370           -6.931984           -1.378254
 C            4.520496           -8.113554           -2.229634
 C            5.195029           -9.242325           -1.915329
 C            6.044154           -9.314709           -0.737219
 C            6.193890           -8.257346            0.092254
 C            5.492773           -7.005047           -0.178002
 N            5.632529           -5.969292            0.639776
 C            4.926627           -4.799538            0.344848
 C            5.037370           -3.696290            1.205650
 C            4.303648           -2.532175            0.927776
 N            4.388600           -1.446047            1.803196
 C            3.654257           -0.373316            1.537988
 C            3.683363            0.779162            2.434989
 C            2.901628            1.854476            2.194770
 C           -0.617945            0.842479            2.313299
 C           -1.104611           -0.405273            2.492286
 C           -1.928279           -1.036255            1.463679
 N           -2.382114           -2.271718            1.630179
 C           -3.165399           -2.826558            0.613732
 C           -3.641537           -4.140048            0.751243
 C           -4.427266           -4.697095           -0.270522
 N           -4.890332           -6.009462           -0.140870
 C           -5.628737           -6.510569           -1.123332
 C           -6.133921           -7.878608           -1.043901
 H           -7.277405           -9.404725           -2.001832
 H           -7.842366           -8.073576           -3.982103
 H           -7.022782           -5.710107           -4.233170
 H           -4.516695           -2.021455           -2.483456
 H           -1.900617            1.624294           -0.808529
 H           -2.194676            3.937369            0.869064
 H           -2.469165            6.362756            0.514045
 H           -2.749592            8.772123            0.115495
 H           -3.036950           11.198307           -0.266532
 H           -2.017681           13.445850           -0.643759
 H            0.426940           13.712155           -0.761272
 H            1.936790           11.740322           -0.509396
 H            2.216017            9.310229           -0.138359
 H            2.497269            6.895659            0.255493
 H            2.778352            4.467156            0.653547
 H            1.322652            0.903843           -0.739080
 H            2.716369           -3.508952           -2.003541
 H            3.877126           -8.030921           -3.108988
 H            5.124210          -10.137079           -2.536141
 H            6.556709          -10.259823           -0.549853
 H            6.826500           -8.286710            0.982673
 H            5.681684           -3.747307            2.090166
 H            4.354683            0.716327            3.295509
 H            2.908310            2.721206            2.859179
 H           -0.000522            1.327561            3.072658
 H           -0.907219           -0.992811            3.392992
 H           -3.399138           -4.725954            1.644654
 H           -5.868823           -8.452049           -0.152494

