94

 C            3.556529           -5.908348           -4.746065
 C            4.539354           -6.696391           -4.025696
 C            4.838414           -6.429630           -2.733536
 C            4.180777           -5.326600           -2.033696
 N            4.504821           -5.090689           -0.764340
 C            3.885703           -4.035983           -0.092717
 C            4.229691           -3.810203            1.251611
 C            3.629871           -2.765494            1.964968
 C            3.915425           -2.507499            3.345095
 C            3.298632           -1.468488            4.001543
 C            3.537005           -1.178950            5.404561
 C            2.921574           -0.135780            6.009628
 C            2.017697            0.721161            5.273789
 C            1.738551            0.506283            3.960021
 C            0.829156            1.429422            3.238834
 C            1.244019            2.706927            3.003798
 C            0.382334            3.680936            2.366705
 C            0.796276            4.982276            2.123545
 C           -0.073636            5.923457            1.512043
 C            0.334584            7.262258            1.263434
 C           -0.522073            8.171510            0.663642
 C           -0.122557            9.543527            0.402560
 C           -0.976463           10.418660           -0.186353
 C           -2.308231           10.005832           -0.566821
 C           -2.728245            8.734803           -0.344099
 C           -1.853622            7.758479            0.281718
 C           -2.263835            6.456542            0.519706
 C           -1.395469            5.515516            1.136772
 C           -1.806468            4.180126            1.388353
 C           -0.948460            3.270193            1.988190
 C           -1.343795            1.899750            2.236360
 C           -0.500443            1.001032            2.821816
 C           -0.936021           -0.398479            3.030081
 C           -0.897806           -0.982310            4.257138
 C           -1.303304           -2.355916            4.462299
 C           -1.757839           -3.111298            3.434531
 C           -1.865673           -2.554621            2.097570
 C           -2.369112           -3.268503            1.035777
 C           -2.472950           -2.668368           -0.262526
 C           -3.005528           -3.336686           -1.370743
 C           -3.082490           -2.689506           -2.618161
 N           -3.634771           -3.386256           -3.692464
 C           -3.715404           -2.786501           -4.878549
 C           -4.305375           -3.519377           -5.998069
 C           -4.403806           -2.943861           -7.218263
 C           -3.926773           -1.593373           -7.451516
 C           -3.371154           -0.868080           -6.451456
 C           -3.239406           -1.420923           -5.113947
 C           -2.694282           -0.727365           -4.059877
 C           -2.600696           -1.335567           -2.764475
 C           -2.072722           -0.665669           -1.654441
 C           -2.011470           -1.308080           -0.404270
 N           -1.511161           -0.589779            0.679745
 C           -1.438548           -1.168461            1.874955
 C            2.364534           -0.622025            3.252610
 N            2.075895           -0.837577            1.972693
 C            2.675340           -1.904983            1.307434
 C            2.327559           -2.133761           -0.037934
 C            2.912307           -3.190376           -0.745305
 C            2.585837           -3.480778           -2.112256
 C            3.193893           -4.526415           -2.764388
 C            2.912244           -4.879225           -4.146106
 H            3.357166           -6.178852           -5.782153
 H            5.024261           -7.510852           -4.564569
 H            5.567279           -7.009544           -2.164121
 H            4.966717           -4.461017            1.727001
 H            4.626754           -3.156107            3.858511
 H            4.224051           -1.831225            5.943722
 H            3.088179            0.094643            7.061998
 H            1.565473            1.555149            5.813900
 H            2.245367            3.031362            3.288613
 H            1.802156            5.297662            2.397804
 H            1.339491            7.564604            1.555259
 H            0.883058            9.840472            0.696456
 H           -0.686594           11.448328           -0.388809
 H           -2.955597           10.745563           -1.034497
 H           -3.728742            8.408873           -0.624432
 H           -3.264789            6.134925            0.234603
 H           -2.811689            3.875030            1.098368
 H           -2.342199            1.599389            1.910268
 H           -0.547956           -0.429099            5.131109
 H           -1.221898           -2.756660            5.472901
 H           -2.056452           -4.149882            3.573794
 H           -2.703021           -4.299980            1.158687
 H           -3.371835           -4.362125           -1.282680
 H           -4.654713           -4.533382           -5.793048
 H           -4.844132           -3.474583           -8.062958
 H           -4.033804           -1.188902           -8.457333
 H           -3.008487            0.146882           -6.612583
 H           -2.325427            0.292301           -4.182601
 H           -1.706777            0.360679           -1.741903
 H            1.594520           -1.475111           -0.514078
 H            1.845864           -2.853459           -2.613124
 H            2.165538           -4.285000           -4.672858

