90

 C           -2.174136           -7.549782           -1.685585
 C           -1.720333           -7.003491           -2.859223
 C           -1.402480           -5.610725           -2.928795
 C           -1.568078           -4.793430           -1.780142
 C           -2.041974           -5.388080           -0.558410
 C           -2.332309           -6.739820           -0.530176
 C           -2.208280           -4.540594            0.636693
 C           -2.643253           -5.066585            1.839675
 C           -2.812350           -4.242177            2.983197
 C           -2.550213           -2.897315            2.914414
 C           -2.102078           -2.313793            1.687491
 C           -1.919304           -3.134251            0.544111
 C           -1.457205           -2.536278           -0.681037
 C           -1.224460           -1.175200           -0.729666
 C           -1.438555           -0.351023            0.412255
 C           -1.264422            1.115961            0.292578
 C           -2.341076            1.931291            0.482386
 C           -2.233187            3.371928            0.377259
 C           -3.328402            4.204021            0.556033
 C           -3.197720            5.615217            0.462703
 C           -4.314671            6.478235            0.629459
 C           -4.172188            7.854605            0.551512
 C           -5.304118            8.751828            0.706347
 C           -5.140459           10.097610            0.642551
 C           -3.832131           10.671566            0.422222
 C           -2.745324            9.874619            0.260636
 C           -2.867245            8.427979            0.308892
 C           -1.773246            7.596076            0.130454
 C           -1.908915            6.182685            0.194278
 C           -0.798219            5.319374           -0.001629
 C           -0.941045            3.942095            0.078463
 C            0.174861            3.042338           -0.130510
 C            0.032276            1.689673           -0.035014
 C            1.212029            0.819927           -0.256590
 C            1.835892            0.787034           -1.483699
 C            3.016249            0.004496           -1.669386
 C            3.550922           -0.734424           -0.582010
 C            4.759559           -1.490690           -0.774709
 C            5.367571           -1.493604           -2.017074
 C            4.821443           -0.761057           -3.103696
 C            3.673887           -0.027345           -2.939423
 C            5.326552           -2.240562            0.361241
 C            6.497853           -2.964770            0.235005
 C            7.041234           -3.681087            1.333958
 C            6.406327           -3.672458            2.549919
 C            5.189421           -2.940672            2.720969
 C            4.645175           -2.216099            1.628513
 C            3.424594           -1.476984            1.815333
 C            2.799105           -1.501287            3.048408
 C            3.346478           -2.232155            4.135946
 C            4.515205           -2.933687            3.982264
 C            2.872694           -0.703465            0.687281
 C            1.727918            0.056971            0.829905
 C           -1.856078           -0.909658            1.599820
 C           -1.255372           -3.391329           -1.865714
 C           -0.779827           -2.874246           -3.056887
 C           -0.610466           -3.698683           -4.200562
 C           -0.917654           -5.034459           -4.144691
 H           -2.419472           -8.609030           -1.619069
 H           -1.594500           -7.615479           -3.750833
 H           -2.689700           -7.213502            0.385495
 H           -2.866968           -6.130412            1.932957
 H           -3.155551           -4.699113            3.910933
 H           -2.679725           -2.254819            3.783537
 H           -0.872609           -0.699251           -1.647910
 H           -3.322347            1.514511            0.716256
 H           -4.309196            3.781394            0.772548
 H           -5.292966            6.037808            0.820394
 H           -6.283624            8.304749            0.871779
 H           -5.982582           10.779051            0.753650
 H           -3.751434           11.757048            0.391595
 H           -1.753198           10.292264            0.093549
 H           -0.787707            8.019560           -0.061769
 H            0.175379            5.758487           -0.218058
 H            1.144188            3.485911           -0.364976
 H            1.447423            1.359954           -2.324257
 H            6.283589           -2.061722           -2.186394
 H            5.332622           -0.793080           -4.065475
 H            3.247799            0.540564           -3.764519
 H            7.029860           -3.001172           -0.716980
 H            7.968023           -4.235146            1.190133
 H            6.813704           -4.218852            3.399011
 H            1.866537           -0.957264            3.210190
 H            2.820318           -2.222359            5.089947
 H            4.945829           -3.494542            4.810239
 H            1.193096            0.092726            1.781702
 H           -2.013722           -0.292613            2.483147
 H           -0.522646           -1.816583           -3.140997
 H           -0.234204           -3.248464           -5.118611
 H           -0.796386           -5.674788           -5.016856

