96

 C          -10.332799           -7.171207           -0.680820
 C          -10.682637           -6.543836            0.579701
 C           -9.951788           -5.520660            1.079175
 C           -8.782333           -5.022898            0.355675
 N           -8.086224           -4.014501            0.877873
 C           -6.965704           -3.541107            0.195476
 C           -6.239209           -2.473968            0.752211
 C           -5.103003           -1.970777            0.102096
 C           -4.356274           -0.873533            0.643647
 C           -3.242657           -0.380310            0.001653
 C           -2.495686            0.752369            0.524441
 C           -1.400573            1.232196           -0.123986
 C           -0.677417            2.422408            0.380718
 C           -1.324092            3.620581            0.451323
 C           -0.668637            4.809580            0.956534
 C           -1.320267            6.031824            1.023504
 C           -0.665511            7.181289            1.540468
 C           -1.319004            8.441267            1.607095
 C           -0.674406            9.553583            2.124937
 C           -1.322476           10.851748            2.191440
 C           -0.678736           11.925459            2.715961
 C            0.668581           11.801144            3.224765
 C            1.319887           10.611320            3.175948
 C            0.680109            9.433678            2.616213
 C            1.331820            8.212565            2.545227
 C            0.685310            7.067543            2.006830
 C            1.345679            5.812961            1.921453
 C            0.699023            4.699975            1.405631
 C            1.357687            3.414257            1.296198
 C            0.713214            2.320047            0.800211
 C            1.435576            1.031246            0.693913
 C            2.527325            0.903510           -0.107054
 C            3.267940           -0.346013           -0.174618
 C            4.375337           -0.490838           -0.979886
 C            5.112659           -1.719505           -1.018222
 C            6.240409           -1.870962           -1.838180
 C            6.955805           -3.081077           -1.851021
 N            8.066827           -3.191912           -2.687036
 C            8.751214           -4.334398           -2.703882
 C            9.909471           -4.448938           -3.589477
 C           10.628512           -5.594133           -3.633203
 C           10.277375           -6.733528           -2.806538
 C            9.214376           -6.683490           -1.968401
 C            8.394253           -5.487766           -1.874851
 C            7.299105           -5.386175           -1.049478
 C            6.532614           -4.176268           -1.010486
 C            5.400671           -4.020046           -0.199176
 C            4.679705           -2.815337           -0.189307
 C            3.515882           -2.646450            0.630246
 C            2.819288           -1.459572            0.646815
 C            1.632223           -1.272679            1.470034
 C            0.971418           -0.091725            1.493190
 C           -0.936921            0.605523           -1.351752
 C           -1.602368           -0.447677           -1.880752
 C           -2.795506           -0.987131           -1.242499
 C           -3.499992           -2.038789           -1.782691
 C           -4.671829           -2.558109           -1.140723
 C           -5.403102           -3.619689           -1.696902
 C           -6.544432           -4.122353           -1.057392
 C           -7.322885           -5.200172           -1.591306
 C           -8.427834           -5.660426           -0.914265
 C           -9.260490           -6.750362           -1.393604
 H          -10.963900           -7.988243           -1.028150
 H          -11.555682           -6.928521            1.107275
 H          -10.192530           -5.029125            2.023780
 H           -6.575727           -2.043948            1.698252
 H           -4.699308           -0.433815            1.580394
 H           -2.850913            1.205394            1.450171
 H           -2.361266            3.716994            0.125253
 H           -2.350172            6.125006            0.679564
 H           -2.342575            8.520295            1.241718
 H           -2.338075           10.929193            1.805016
 H           -1.153725           12.903851            2.768470
 H            1.137074           12.689517            3.645435
 H            2.335614           10.501925            3.554318
 H            2.355616            8.114893            2.905544
 H            2.375687            5.737802            2.269599
 H            2.395056            3.349570            1.629483
 H            2.883406            1.733284           -0.717796
 H            4.719584            0.332292           -1.606375
 H            6.578000           -1.052225           -2.477567
 H           10.151435           -3.576339           -4.199320
 H           11.492526           -5.697123           -4.290073
 H           10.899181           -7.624271           -2.887036
 H            8.939709           -7.531179           -1.341462
 H            6.994780           -6.218267           -0.413728
 H            5.075758           -4.846229            0.433354
 H            3.193604           -3.487219            1.244659
 H            1.295520           -2.121755            2.065127
 H            0.079193            0.056265            2.102277
 H           -0.041211            1.014111           -1.820514
 H           -1.265604           -0.925999           -2.800686
 H           -3.178801           -2.499820           -2.716772
 H           -5.079448           -4.059251           -2.640444
 H           -7.020049           -5.643189           -2.540619
 H           -8.987463           -7.211229           -2.342338

