96

 C           -7.887290           -0.241703           -4.325019
 C           -8.437481           -1.515532           -3.901808
 C           -7.802697           -2.281852           -2.985243
 C           -6.540487           -1.838054           -2.394996
 N           -5.945807           -2.619345           -1.495013
 C           -4.747514           -2.195775           -0.920981
 C           -4.129256           -3.016503            0.037055
 C           -2.934750           -2.617440            0.654544
 C           -2.320157           -3.432633            1.658887
 C           -1.187034           -3.016844            2.318403
 C           -0.577732           -3.830026            3.362824
 C            0.518565           -3.402548            4.033041
 C            1.111632           -2.117427            3.726726
 C            0.595140           -1.331995            2.751237
 C           -0.569272           -1.744603            1.978937
 C           -1.099026           -0.975032            0.957154
 C           -0.434960            0.284865            0.537055
 C           -0.738904            1.456784            1.161798
 C           -0.103099            2.704399            0.788916
 C           -0.413121            3.900277            1.418457
 C            0.232129            5.110844            1.048297
 C           -0.080708            6.344025            1.681418
 C            0.564471            7.516796            1.320909
 C            0.252852            8.787778            1.951456
 C            0.906023            9.922567            1.593515
 C            1.930671            9.892576            0.574532
 C            2.251436            8.730910           -0.050045
 C            1.577962            7.489701            0.290243
 C            1.882963            6.294730           -0.342703
 C            1.222847            5.087460            0.012464
 C            1.522798            3.857678           -0.632993
 C            0.881502            2.683950           -0.267351
 C            1.168404            1.420365           -0.916484
 C            0.545579            0.267568           -0.543874
 C            0.862150           -1.007519           -1.235846
 C            0.184515           -1.374244           -2.385831
 C           -0.801842           -0.513259           -3.025041
 C           -1.467184           -0.905197           -4.138063
 C           -1.218092           -2.203047           -4.730232
 C           -0.301848           -3.040481           -4.189092
 C            0.454353           -2.664199           -3.001564
 C            1.401550           -3.503207           -2.462570
 C            2.163795           -3.119854           -1.312149
 C            3.161632           -3.960267           -0.797296
 C            3.923795           -3.566932            0.315801
 N            4.906031           -4.431694            0.797314
 C            5.631093           -4.060158            1.851262
 C            6.659973           -4.970634            2.352045
 C            7.414191           -4.630448            3.422462
 C            7.226069           -3.361603            4.100021
 C            6.288938           -2.479034            3.677640
 C            5.445049           -2.778259            2.533833
 C            4.480663           -1.919095            2.060611
 C            3.681215           -2.283745            0.929792
 C            2.680183           -1.452259            0.408762
 C            1.902840           -1.845906           -0.691904
 C           -2.320457           -1.364615            0.295679
 C           -2.943143           -0.550910           -0.664381
 C           -4.141917           -0.936056           -1.280151
 C           -4.806273           -0.127554           -2.258181
 C           -5.988662           -0.549943           -2.819690
 C           -6.721413            0.218639           -3.811039
 H           -8.446053            0.326104           -5.067634
 H           -9.380024           -1.830654           -4.349708
 H           -8.192390           -3.244250           -2.647971
 H           -4.598805           -3.967125            0.298917
 H           -2.780740           -4.392710            1.893952
 H           -1.039197           -4.792651            3.580823
 H            0.983646           -4.003812            4.812943
 H            1.982052           -1.811652            4.305094
 H            1.031326           -0.359197            2.521172
 H           -1.473528            1.483584            1.968824
 H           -1.160354            3.925567            2.211760
 H           -0.842360            6.354552            2.460933
 H           -0.521733            8.795277            2.717268
 H            0.678846           10.880868            2.058394
 H            2.431639           10.827948            0.329279
 H            3.020698            8.693418           -0.820327
 H            2.640380            6.267028           -1.125936
 H            2.270537            3.850612           -1.426213
 H            1.904767            1.420390           -1.722428
 H           -0.978524            0.465911           -2.578471
 H           -2.204780           -0.263979           -4.617912
 H           -1.789971           -2.475331           -5.616093
 H           -0.099895           -4.019944           -4.621511
 H            1.596587           -4.480511           -2.905327
 H            3.361616           -4.930661           -1.256667
 H            6.779295           -5.917827            1.822505
 H            8.184705           -5.298011            3.808590
 H            7.864379           -3.148421            4.956321
 H            6.138141           -1.522504            4.176875
 H            4.306238           -0.952245            2.533784
 H            2.505810           -0.478156            0.871179
 H           -2.491025            0.405719           -0.935256
 H           -4.356086            0.824190           -2.542116
 H           -6.298286            1.174086           -4.119296

