96

 C            8.584837            1.004689           -3.890240
 C            8.030327            2.184038           -3.252699
 C            6.843044            2.136666           -2.605981
 C            6.091764            0.884576           -2.528078
 N            4.935804            0.873031           -1.866525
 C            4.220356           -0.320528           -1.779253
 C            3.016154           -0.329335           -1.053177
 C            2.256110           -1.501384           -0.931355
 C            2.726138           -2.709218           -1.560674
 C            3.927819           -2.699501           -2.287564
 C            4.692174           -1.531170           -2.405490
 C            5.937804           -1.479562           -3.111117
 C            6.648038           -0.303350           -3.178715
 C            7.926051           -0.178692           -3.858666
 C            1.964809           -3.913247           -1.417719
 C            0.822634           -3.947399           -0.652210
 C            0.060333           -5.177374           -0.483254
 C           -1.049554           -5.211612            0.292034
 C           -1.498656           -4.021983            0.985420
 C           -0.830284           -2.851374            0.854072
 C            0.350404           -2.740359            0.007990
 C            1.026810           -1.546817           -0.173794
 C            0.524331           -0.285300            0.425761
 C            1.058390            0.175119            1.591703
 C            0.616391            1.417513            2.192579
 C            1.154106            1.888360            3.380782
 C            0.702401            3.106403            3.955878
 C            1.241727            3.598307            5.175062
 C            0.780266            4.778806            5.736200
 C            1.315404            5.294037            6.984554
 C            0.840388            6.445279            7.524345
 C           -0.209380            7.189543            6.866172
 C           -0.737112            6.752710            5.694323
 C           -0.265070            5.526724            5.074578
 C           -0.790199            5.063274            3.878517
 C           -0.324943            3.854939            3.293271
 C           -0.859217            3.367955            2.070465
 C           -0.411893            2.176280            1.520753
 C           -0.957986            1.652265            0.285301
 C           -0.529303            0.471192           -0.241878
 C           -1.153772           -0.052137           -1.482737
 C           -0.560575            0.140933           -2.717745
 C            0.671951            0.899640           -2.885016
 C            1.244753            1.057829           -4.102041
 C            0.640967            0.479503           -5.284630
 C           -0.515008           -0.220109           -5.194000
 C           -1.176848           -0.417516           -3.911157
 C           -2.358130           -1.115852           -3.816236
 C           -3.016539           -1.293621           -2.557372
 C           -4.239173           -1.979921           -2.472900
 C           -4.891354           -2.147917           -1.244160
 C           -6.138194           -2.840040           -1.107520
 C           -6.724875           -2.974652            0.129532
 C           -7.988628           -3.658374            0.345419
 C           -8.520677           -3.762029            1.587014
 C           -7.842213           -3.197520            2.738525
 C           -6.662264           -2.549115            2.606608
 C           -6.043043           -2.398816            1.290403
 N           -4.886216           -1.745027            1.199234
 C           -4.290806           -1.599089           -0.053109
 C           -3.073892           -0.899997           -0.139353
 C           -2.414623           -0.748108           -1.367593
 H            9.546298            1.109362           -4.391558
 H            8.606601            3.107223           -3.314824
 H            6.399920            3.007629           -2.118837
 H            2.691694            0.600377           -0.575079
 H            4.275007           -3.618363           -2.760102
 H            6.307086           -2.389963           -3.583957
 H            8.330286           -1.071201           -4.334913
 H            2.316803           -4.809450           -1.927790
 H            0.420615           -6.063411           -1.003556
 H           -1.629654           -6.123990            0.421262
 H           -2.386972           -4.101611            1.612326
 H           -1.155965           -1.954680            1.386359
 H            1.843180           -0.383391            2.105371
 H            1.933564            1.323714            3.892134
 H            2.028940            3.027396            5.666849
 H            2.107298            4.723162            7.467865
 H            1.232694            6.839629            8.460521
 H           -0.558131            8.105008            7.341577
 H           -1.528048            7.303033            5.186312
 H           -1.575457            5.622227            3.370144
 H           -1.634540            3.946766            1.568813
 H           -1.738200            2.234126           -0.208990
 H            1.118308            1.340807           -1.990982
 H            2.170164            1.620307           -4.225956
 H            1.145510            0.630346           -6.237780
 H           -0.988159           -0.656475           -6.072223
 H           -2.819257           -1.547073           -4.704311
 H           -4.688394           -2.386507           -3.378919
 H           -6.606078           -3.252619           -2.001707
 H           -8.486978           -4.079394           -0.527024
 H           -9.469317           -4.268464            1.760965
 H           -8.319643           -3.315671            3.711314
 H           -6.128574           -2.114611            3.454377
 H           -2.652859           -0.475502            0.777779

