86

 C           -6.170126           -3.886605           -5.200670
 C           -4.905075           -3.605562           -4.842638
 C           -4.783113           -2.961103           -3.530767
 C           -3.651646           -2.551405           -2.886515
 C           -3.751992           -1.938117           -1.583345
 C           -2.606776           -1.507942           -0.896064
 C           -2.690119           -0.913543            0.371645
 C           -3.982169           -0.764989            0.985396
 C           -5.130028           -1.183645            0.296763
 C           -5.042422           -1.765458           -0.975677
 C           -6.225901           -2.202640           -1.681493
 C           -6.078336           -2.771749           -2.902306
 S           -7.335404           -3.389955           -3.966210
 C           -4.085767           -0.202761            2.312607
 C           -2.947284            0.149493            2.955893
 S           -2.790866            0.823270            4.573642
 C           -1.028081            0.903554            4.465000
 C           -0.576813            0.456097            3.280589
 C           -1.631457            0.016741            2.360733
 C           -1.505573           -0.469015            1.084045
 C           -0.174032           -0.557094            0.439129
 C            0.642513           -1.615783            0.698975
 C            1.966402           -1.713368            0.117202
 C            2.799404           -2.792341            0.371330
 C            4.101513           -2.860367           -0.192862
 C            4.963639           -3.962364            0.056451
 C            6.237260           -4.011601           -0.488314
 C            7.134970           -5.125994           -0.238554
 C            8.378232           -5.155482           -0.782319
 C            8.838435           -4.077223           -1.627839
 C            8.037836           -3.012633           -1.888458
 C            6.699992           -2.929824           -1.328650
 C            5.866840           -1.851285           -1.581418
 C            4.558286           -1.790340           -1.030292
 C            3.690968           -0.696020           -1.292283
 C            2.418667           -0.645567           -0.743359
 C            1.512827            0.453583           -1.011653
 C            0.268498            0.502825           -0.460065
 C           -0.646382            1.622464           -0.785550
 C           -1.389934            1.603981           -1.938134
 C           -1.394302            0.600902           -3.008310
 C           -2.258847            0.859827           -4.004431
 S           -3.148335            2.363463           -3.733426
 C           -2.324059            2.679142           -2.211427
 C           -2.495840            3.734929           -1.380832
 C           -1.689410            3.808982           -0.183980
 C           -0.751091            2.759885            0.110891
 C            0.058325            2.875586            1.250625
 C           -0.042881            3.975487            2.115939
 C            0.798808            4.083612            3.284039
 C            0.678362            5.165649            4.107282
 C            1.430025            5.472614            5.328792
 C            1.070397            6.625599            5.919364
 S           -0.223234            7.448131            5.037145
 C           -0.299068            6.195771            3.804195
 C           -1.111271            6.141565            2.720983
 C           -0.999287            5.008763            1.829772
 C           -1.801407            4.904391            0.684848
 H           -6.530991           -4.353357           -6.102645
 H           -4.021639           -3.817881           -5.431727
 H           -2.665879           -2.674970           -3.330259
 H           -1.626997           -1.642429           -1.359264
 H           -6.108320           -1.057667            0.761796
 H           -7.198345           -2.062355           -1.212508
 H           -5.072076           -0.083906            2.757882
 H           -0.468394            1.283248            5.304101
 H            0.463576            0.394482            2.982964
 H            0.319199           -2.421471            1.360931
 H            2.462611           -3.606348            1.013512
 H            4.604672           -4.775615            0.686837
 H            6.774432           -5.931968            0.399265
 H            9.060041           -5.984673           -0.598806
 H            9.841637           -4.150608           -2.045234
 H            8.371402           -2.192769           -2.523295
 H            6.208626           -1.029560           -2.210420
 H            4.042460            0.109209           -1.937695
 H            1.860112            1.245322           -1.678311
 H           -0.729102           -0.253173           -2.954860
 H           -2.457989            0.286911           -4.895193
 H           -3.211987            4.529632           -1.582605
 H            0.787391            2.092428            1.469221
 H            1.517908            3.291757            3.483630
 H            2.199961            4.797469            5.680922
 H            1.460306            7.077217            6.817045
 H           -1.842955            6.915662            2.495970
 H           -2.523329            5.690986            0.463011

