86

 C            4.584091           -6.908213            3.694667
 C            3.689198           -5.911566            3.582011
 C            3.835181           -5.109828            2.362440
 C            3.098200           -4.034662            1.958429
 C            3.408651           -3.382945            0.707703
 C            2.676294           -2.268820            0.271458
 C            2.968315           -1.637110           -0.947080
 C            4.032934           -2.148266           -1.766387
 C            4.771566           -3.256651           -1.327850
 C            4.484089           -3.880994           -0.106261
 C            5.252850           -5.018310            0.347739
 C            4.926747           -5.588410            1.532500
 S            5.690331           -6.966160            2.315157
 C            4.323828           -1.512772           -3.031306
 C            3.585091           -0.438750           -3.400904
 S            3.734011            0.506473           -4.877066
 C            2.437356            1.602956           -4.410149
 C            1.902230            1.283903           -3.211633
 C            0.826593            2.055863           -2.565386
 C            1.080858            3.314149           -2.108023
 C            0.035900            4.135758           -1.532596
 C            0.280027            5.434085           -1.111160
 C           -0.769814            6.248739           -0.610559
 C           -0.539795            7.593950           -0.214052
 C           -1.578244            8.393037            0.236992
 C           -1.366073            9.776400            0.626167
 C           -2.399312           10.546421            1.052265
 C           -3.737257           10.005358            1.132784
 C           -3.985078            8.716716            0.786100
 C           -2.915933            7.850365            0.320748
 C           -3.148617            6.534142           -0.046099
 C           -2.094606            5.708112           -0.522514
 C           -2.325072            4.366552           -0.929146
 C           -1.295288            3.585884           -1.433163
 C           -1.515562            2.229084           -1.891843
 C           -0.511043            1.490468           -2.443048
 C           -0.773962            0.130029           -2.940001
 C           -0.678086           -0.248212           -4.232881
 S           -1.089706           -1.944694           -4.467699
 C           -1.400880           -2.197298           -2.756273
 C           -1.775957           -3.347356           -2.145297
 C           -1.966523           -3.339216           -0.713021
 C           -1.757473           -2.121367            0.021471
 C           -1.933994           -2.120979            1.413497
 C           -2.304389           -3.286506            2.100744
 C           -2.467698           -3.284870            3.535459
 C           -2.824809           -4.435075            4.177253
 C           -3.035082           -4.653123            5.612334
 C           -3.389398           -5.910319            5.930548
 S           -3.499305           -6.950861            4.504696
 C           -3.045849           -5.649634            3.411986
 C           -2.906164           -5.703736            2.065619
 C           -2.519136           -4.501297            1.362327
 C           -2.346910           -4.502626           -0.028761
 C           -1.364246           -0.923112           -0.680738
 C           -1.187901           -0.956432           -2.033743
 C            2.517909            0.104070           -2.580826
 C            2.216372           -0.486283           -1.387997
 H            4.693101           -7.633902            4.483990
 H            2.908278           -5.682833            4.296975
 H            2.272043           -3.651427            2.555274
 H            1.861713           -1.888497            0.889351
 H            5.581661           -3.639973           -1.948345
 H            6.069259           -5.381476           -0.274175
 H            5.123649           -1.916024           -3.650010
 H            2.165963            2.413961           -5.066793
 H            2.081703            3.744344           -2.176402
 H            1.285213            5.851355           -1.172062
 H            0.472697            7.992438           -0.277435
 H           -0.352286           10.169787            0.560653
 H           -2.252381           11.585479            1.343318
 H           -4.532087           10.664483            1.478722
 H           -4.988047            8.295465            0.842919
 H           -4.152788            6.115778            0.019844
 H           -3.333646            3.960736           -0.851184
 H           -2.523909            1.821232           -1.799655
 H           -0.384982            0.349761           -5.082498
 H           -1.934103           -4.276837           -2.690471
 H           -1.781156           -1.197074            1.971795
 H           -2.300017           -2.356501            4.078261
 H           -2.903451           -3.839621            6.315033
 H           -3.601254           -6.328026            6.901537
 H           -3.072193           -6.615644            1.493875
 H           -2.507729           -5.424772           -0.588240
 H           -1.214972           -0.006441           -0.110556
 H            1.409762           -0.111729           -0.757251

