86

 C           -6.767121           -4.262375           -4.182567
 C           -7.166278           -3.434422           -3.201664
 C           -6.066775           -2.853012           -2.423989
 C           -6.137935           -1.987330           -1.371136
 C           -4.923666           -1.538923           -0.731884
 C           -3.651723           -1.999659           -1.215166
 C           -3.604919           -2.916320           -2.332013
 C           -4.772471           -3.311027           -2.895460
 S           -5.005356           -4.408599           -4.250546
 C           -2.474469           -1.553607           -0.595476
 C           -2.510156           -0.662472            0.485727
 C           -3.785252           -0.228861            0.991200
 C           -4.962024           -0.666179            0.365711
 C           -3.849290            0.631340            2.148783
 C           -2.697141            1.009119            2.772549
 C           -2.543637            1.843055            3.969963
 C           -1.269429            2.014696            4.359779
 S           -0.134509            1.169629            3.295892
 C           -1.416919            0.571525            2.250690
 C           -1.294824           -0.192657            1.130675
 C            0.039723           -0.561735            0.603368
 C            0.755336           -1.548771            1.212565
 C            2.081938           -1.916521            0.759934
 C            2.812455           -2.922570            1.374476
 C            4.118307           -3.256436            0.925713
 C            4.877473           -4.285381            1.546075
 C            6.153172           -4.598429            1.103650
 C            6.945426           -5.643785            1.727986
 C            8.192449           -5.935729            1.278497
 C            8.762407           -5.212569            0.164193
 C            8.062269           -4.226128           -0.451458
 C            6.724790           -3.872520           -0.008447
 C            5.993488           -2.867748           -0.622211
 C            4.684540           -2.537724           -0.177784
 C            3.923739           -1.513645           -0.802623
 C            2.647987           -1.200156           -0.358240
 C            1.849199           -0.170080           -0.991334
 C            0.597705            0.137830           -0.548498
 C           -0.196087            1.169587           -1.256061
 C           -0.810723            0.889911           -2.438050
 S           -0.736109           -0.601282           -3.368409
 C           -1.826301            0.016001           -4.619121
 C           -2.211035            1.278908           -4.369285
 C           -1.647549            1.844895           -3.138432
 C           -1.822144            3.097005           -2.627625
 C           -1.145071            3.471514           -1.408834
 C           -1.273318            4.770583           -0.895462
 C           -0.588127            5.168395            0.262171
 C            0.268544            4.225848            0.926635
 C            0.994276            4.634488            2.108334
 C            0.837732            5.903160            2.558293
 S            1.592568            6.658290            3.956671
 C            0.785118            8.206013            3.669445
 C           -0.011175            8.165402            2.587268
 C           -0.026435            6.868098            1.902949
 C           -0.722169            6.507119            0.785607
 C            0.388522            2.923588            0.418416
 C           -0.313553            2.517694           -0.724649
 H           -7.366665           -4.814943           -4.887545
 H           -8.193539           -3.187809           -2.963577
 H           -7.091669           -1.622704           -0.995179
 H           -2.633621           -3.258891           -2.688078
 H           -1.509338           -1.913476           -0.962946
 H           -5.925921           -0.326184            0.744329
 H           -4.825236            0.952854            2.507085
 H           -3.414904            2.261060            4.459259
 H           -0.885378            2.575622            5.196668
 H            0.347048           -2.088147            2.069954
 H            2.390278           -3.471265            2.216413
 H            4.437156           -4.829243            2.381488
 H            6.502574           -6.180363            2.566171
 H            8.795990           -6.716119            1.739551
 H            9.764884           -5.487418           -0.160254
 H            8.478254           -3.672830           -1.292583
 H            6.416860           -2.313778           -1.459786
 H            4.359489           -0.975015           -1.644199
 H            2.283841            0.350908           -1.847217
 H           -2.091963           -0.623393           -5.445452
 H           -2.875653            1.869691           -4.987588
 H           -2.453733            3.832736           -3.121539
 H           -1.913232            5.487049           -1.410384
 H            1.641260            3.909786            2.602121
 H            0.975820            9.028983            4.339025
 H           -0.606153            8.988167            2.210714
 H           -1.380326            7.205087            0.272280
 H            1.047903            2.212496            0.924072

