86

 C           -1.906060           -5.342543           10.138858
 C           -1.123847           -5.505410            9.057821
 C           -1.518807           -4.689666            7.904673
 C           -0.936304           -4.624358            6.672197
 C           -1.483247           -3.744581            5.666785
 C           -2.639027           -2.946357            5.972378
 C           -3.165644           -2.091930            4.992447
 C           -2.584051           -2.002818            3.719954
 C           -3.130805           -1.123741            2.709926
 C           -2.530103           -1.077649            1.496664
 S           -2.992308           -0.112580            0.099679
 C           -1.669214           -0.768559           -0.894964
 C           -1.595902           -0.314509           -2.277362
 C           -2.575097           -0.657723           -3.163062
 C           -2.529081           -0.230203           -4.546490
 C           -3.523069           -0.574868           -5.450364
 C           -3.460641           -0.147938           -6.803700
 C           -4.476545           -0.487033           -7.737986
 C           -4.402535           -0.069882           -9.057653
 C           -5.433343           -0.402706          -10.025442
 C           -5.337941            0.008448          -11.315471
 C           -4.205288            0.789866          -11.757832
 C           -3.218123            1.129760          -10.890413
 C           -3.273074            0.718171           -9.498413
 C           -2.279764            1.061316           -8.594656
 C           -2.347798            0.645281           -7.237314
 C           -1.338586            0.995468           -6.300933
 C           -1.412666            0.575579           -4.981029
 C           -0.393719            0.923440           -4.011596
 C           -0.470193            0.505502           -2.715168
 C            0.568020            0.878928           -1.763770
 C            0.538480            1.702625           -0.698693
 C            1.829863            1.849674           -0.022952
 C            2.132812            2.618146            1.063449
 C            3.482977            2.635738            1.575740
 C            3.824271            3.418694            2.688391
 C            5.134179            3.436927            3.191637
 C            6.145014            2.638101            2.554172
 C            5.805482            1.856570            1.439983
 C            4.496577            1.840020            0.938010
 C            4.149422            1.035690           -0.212786
 C            2.869312            1.055901           -0.655285
 S            2.187671            0.187377           -2.025527
 C            7.494463            2.652298            3.073256
 C            7.765709            3.423027            4.154498
 S            9.302805            3.621812            4.986824
 C            8.620249            4.748966            6.167653
 C            7.311506            4.970248            5.955027
 C            6.758394            4.236622            4.811780
 C            5.478107            4.242452            4.339282
 C           -0.913669           -1.648426           -0.210541
 C           -1.359628           -1.872322            1.166703
 C           -0.825106           -2.709519            2.102656
 C           -1.427244           -2.799318            3.412247
 C           -0.902254           -3.654237            4.392491
 C           -3.238884           -3.036899            7.284780
 C           -2.686448           -3.876386            8.194033
 S           -3.204140           -4.175795            9.848476
 H           -1.832501           -5.816341           11.104452
 H           -0.267613           -6.165944            8.993574
 H           -0.061883           -5.222924            6.423581
 H           -4.042572           -1.486650            5.224079
 H           -4.009042           -0.528009            2.953544
 H           -3.423675           -1.272266           -2.852788
 H           -4.369128           -1.183516           -5.130061
 H           -5.322908           -1.083396           -7.397612
 H           -6.281409           -0.991619           -9.678419
 H           -6.105347           -0.235383          -12.048646
 H           -4.173244            1.092720          -12.803424
 H           -2.358980            1.718142          -11.210082
 H           -1.426265            1.657360           -8.917384
 H           -0.499118            1.604923           -6.636736
 H            0.440807            1.539354           -4.355426
 H           -0.338518            2.230802           -0.340845
 H            1.376400            3.223883            1.560147
 H            3.056858            4.023681            3.172798
 H            6.572267            1.250923            0.956060
 H            4.926307            0.440174           -0.689545
 H            8.251324            2.043224            2.581885
 H            9.259726            5.157873            6.933321
 H            6.678290            5.620843            6.546103
 H            4.700828            4.842761            4.808547
 H           -0.048045           -2.169249           -0.605078
 H            0.051900           -3.317802            1.886898
 H           -0.025201           -4.259702            4.160738
 H           -4.114715           -2.428455            7.503953

