86

 C            8.165401           -8.041004           -1.707239
 C            7.552408           -7.457278           -0.662837
 C            6.795116           -6.250443           -1.011030
 C            6.067557           -5.438563           -0.190013
 C            5.386161           -4.290160           -0.738509
 C            4.625321           -3.441958            0.080797
 C            3.959985           -2.325459           -0.446365
 C            4.063223           -2.043947           -1.852589
 C            4.821150           -2.891352           -2.672707
 C            5.483950           -4.009364           -2.144858
 C            6.262552           -4.884499           -2.992192
 C            6.880416           -5.951399           -2.429411
 S            7.875963           -7.168023           -3.218737
 C            3.383881           -0.889367           -2.398033
 C            2.665188           -0.104181           -1.560129
 S            1.759963            1.352018           -1.956102
 C            1.252643            1.595406           -0.266623
 C            0.451878            2.778668            0.018113
 C            0.999441            4.021927           -0.107236
 C            0.233410            5.218782            0.174429
 C            0.785102            6.485216            0.046777
 C            0.018830            7.647680            0.327248
 C            0.568897            8.951297            0.191421
 C           -0.186285           10.078649            0.473671
 C            0.356996           11.418883            0.335771
 C           -0.396560           12.509947            0.625464
 C           -1.761353           12.363796            1.078868
 C           -2.315402           11.132866            1.220064
 C           -1.554066            9.932654            0.919904
 C           -2.103709            8.666934            1.048985
 C           -1.341902            7.503387            0.755504
 C           -1.896427            6.201627            0.878187
 C           -1.139133            5.073719            0.597540
 C           -1.687244            3.738080            0.717086
 C           -0.937619            2.632109            0.441635
 C           -1.521209            1.302922            0.565654
 C           -1.833310            0.382967           -0.366725
 C           -2.458276           -0.826192            0.174552
 C           -2.902008           -1.924301           -0.503542
 C           -3.505756           -3.018674            0.219869
 C           -3.630771           -2.943272            1.650269
 C           -4.213261           -4.009390            2.349745
 C           -4.678464           -5.149605            1.678166
 C           -5.274862           -6.250391            2.401166
 C           -5.703879           -7.329120            1.702054
 S           -6.453032           -8.794741            2.322545
 C           -6.609473           -9.504772            0.709609
 C           -6.129466           -8.692124           -0.247666
 C           -5.592591           -7.423968            0.257362
 C           -5.035923           -6.396918           -0.448194
 C           -4.558370           -5.225628            0.247775
 C           -3.974218           -4.157884           -0.450942
 C           -3.153732           -1.767451            2.344613
 C           -2.597648           -0.767526            1.619366
 S           -1.950940            0.760308            2.206262
 C            1.723347            0.628735            0.544342
 C            2.545183           -0.373717           -0.137675
 C            3.176644           -1.457131            0.400926
 H            8.775561           -8.929664           -1.723111
 H            7.583224           -7.807726            0.361665
 H            5.985237           -5.634763            0.877443
 H            4.549161           -3.656133            1.147498
 H            4.896099           -2.678265           -3.739433
 H            6.328624           -4.661635           -4.055758
 H            3.472165           -0.684677           -3.463742
 H            2.038304            4.149851           -0.420947
 H            1.821280            6.603061           -0.271563
 H            1.601429            9.051574           -0.142945
 H            1.386360           11.513893           -0.007798
 H            0.000901           13.518911            0.524617
 H           -2.323319           13.269623            1.301973
 H           -3.342335           11.007552            1.561269
 H           -3.134770            8.547392            1.381639
 H           -2.934223            6.100558            1.197106
 H           -2.729373            3.646649            1.032758
 H           -1.657586            0.487137           -1.431915
 H           -2.811719           -1.999571           -1.586108
 H           -4.305184           -3.951682            3.434718
 H           -5.360468           -6.180750            3.484231
 H           -7.051334          -10.482831            0.607506
 H           -6.116241           -8.908192           -1.309028
 H           -4.940082           -6.436527           -1.531692
 H           -3.881518           -4.215984           -1.536104
 H           -3.257478           -1.720315            3.427374
 H            1.537863            0.561557            1.610799
 H            3.105407           -1.687715            1.462763

