80

 C           -0.839670           -3.839868            1.587483
 C           -1.100905           -2.556090            1.918058
 C           -1.028711           -1.499649            0.914696
 C           -1.383889           -0.126182            1.339290
 C           -2.642166            0.139793            1.791608
 C           -3.036574            1.472159            2.202070
 C           -4.321884            1.754887            2.639522
 C           -4.689909            3.071343            3.026206
 C           -6.008684            3.379088            3.457091
 C           -6.357996            4.669371            3.823909
 C           -7.702819            5.005107            4.258212
 C           -8.024157            6.275428            4.612745
 C           -7.033550            7.327081            4.565754
 C           -5.763771            7.063786            4.165282
 C           -5.367939            5.721756            3.775414
 C           -4.077536            5.433249            3.360339
 C           -3.709616            4.116075            2.975082
 C           -2.394822            3.813064            2.531993
 C           -2.052386            2.527209            2.142459
 C           -0.725608            2.204549            1.659597
 C           -0.397389            0.942616            1.262449
 C            0.963821            0.669570            0.747235
 C            1.421359            1.285053           -0.373097
 C            2.777853            1.064195           -0.857473
 C            3.252136            1.677697           -1.984200
 C            4.606568            1.472460           -2.446468
 C            5.079578            2.095895           -3.587445
 C            6.418266            1.887355           -4.014164
 C            7.065380            2.422929           -5.125836
 S            8.661497            1.864768           -5.186799
 C            8.567800            0.917954           -3.787599
 C            7.290988            1.010911           -3.237305
 C            6.782704            0.377014           -2.072140
 C            5.474234            0.591286           -1.676834
 C            4.932073           -0.049127           -0.498980
 C            3.643836            0.164477           -0.094490
 C            3.086314           -0.483126            1.089761
 C            1.816231           -0.251769            1.488601
 C           -0.675990           -1.787479           -0.363543
 C           -0.381331           -3.153898           -0.777891
 C           -0.032379           -3.459178           -2.064769
 C            0.236637           -4.819150           -2.475808
 C            0.579975           -5.121389           -3.781779
 C            0.829238           -6.466719           -4.163282
 C            1.179562           -6.959865           -5.418728
 S            1.362140           -8.640116           -5.346516
 C            0.996006           -8.784223           -3.701136
 C            0.722182           -7.527439           -3.164985
 C            0.371070           -7.194284           -1.829713
 C            0.132245           -5.876954           -1.480176
 C           -0.225896           -5.513036           -0.127328
 C           -0.475582           -4.215720            0.224339
 H           -0.891610           -4.639490            2.325973
 H           -1.367414           -2.267165            2.934379
 H           -3.394595           -0.648644            1.846481
 H           -5.070780            0.964944            2.689190
 H           -6.747709            2.579158            3.492770
 H           -8.439215            4.202947            4.285956
 H           -9.029191            6.538586            4.938922
 H           -7.342179            8.329318            4.859254
 H           -5.006667            7.845860            4.121985
 H           -3.324060            6.219613            3.322494
 H           -1.654582            4.612289            2.499169
 H            0.008432            3.011254            1.621024
 H            0.790824            1.966415           -0.943844
 H            2.618120            2.346013           -2.566344
 H            4.440722            2.752753           -4.174385
 H            6.640505            3.091460           -5.852731
 H            9.389749            0.339796           -3.405085
 H            7.441291           -0.276565           -1.503057
 H            5.590069           -0.715671            0.058509
 H            3.737907           -1.165315            1.635723
 H            1.387206           -0.740919            2.363347
 H           -0.601677           -1.006369           -1.121288
 H            0.052486           -2.678673           -2.821516
 H            0.664956           -4.340345           -4.535179
 H            1.319977           -6.384116           -6.316013
 H            0.984810           -9.721346           -3.174262
 H            0.293794           -7.993424           -1.095015
 H           -0.290304           -6.314827            0.607732

