78

 C           -6.514195           -3.712363            2.007911
 C           -7.008054           -2.838415            1.037124
 C           -6.129696           -2.025855            0.302205
 C           -4.732165           -2.101298            0.557305
 C           -4.240211           -2.996862            1.546553
 C           -5.143898           -3.796676            2.263798
 C           -2.807920           -3.054231            1.782589
 C           -1.946690           -2.280808            1.079785
 C           -2.414500           -1.354914            0.061680
 C           -1.537392           -0.538628           -0.681237
 C           -0.069528           -0.626722           -0.496639
 C            0.638697           -1.625435           -1.092984
 C            2.075925           -1.730036           -0.938167
 C            2.803819           -2.744977           -1.539777
 C            4.212488           -2.830949           -1.376126
 C            4.970215           -3.863604           -1.990628
 C            6.344013           -3.939552           -1.821007
 C            7.135561           -4.985509           -2.444640
 C            8.479009           -5.046049           -2.260696
 C            9.155073           -4.068811           -1.437673
 C            8.459351           -3.070309           -0.836453
 C            7.020985           -2.958241           -1.003571
 C            6.292496           -1.943072           -0.403058
 C            4.885017           -1.852426           -0.573021
 C            4.128122           -0.815944            0.036316
 C            2.753968           -0.742324           -0.131280
 C            1.964029            0.304853            0.485193
 C            0.614151            0.368903            0.317461
 C           -0.170619            1.441994            0.972575
 C           -0.241976            2.735382            0.416518
 C            0.395419            3.080770           -0.843332
 C            0.308901            4.328934           -1.361387
 C           -0.420947            5.382251           -0.676928
 C           -0.515603            6.681349           -1.200518
 C           -1.225888            7.667165           -0.511947
 C           -1.849704            7.381444            0.704305
 C           -1.773434            6.091529            1.254050
 C           -1.054879            5.079109            0.559531
 C           -0.970097            3.744295            1.107620
 C           -1.616707            3.445353            2.338255
 C           -2.337834            4.502099            3.026969
 C           -2.410022            5.754644            2.516278
 C           -1.543090            2.141504            2.854506
 C           -0.830850            1.154329            2.176052
 C           -2.044941            0.360863           -1.629998
 C           -3.414441            0.445728           -1.873937
 C           -4.313334           -0.368890           -1.166734
 C           -3.813298           -1.269764           -0.186685
 C           -5.745186           -0.318631           -1.408104
 C           -6.604719           -1.104234           -0.716116
 H           -7.206347           -4.336306            2.572571
 H           -8.078848           -2.785914            0.848851
 H           -4.774168           -4.485468            3.021226
 H           -2.452110           -3.744573            2.546940
 H           -0.870776           -2.329801            1.258678
 H            0.138915           -2.376258           -1.707009
 H            2.299988           -3.495014           -2.148950
 H            4.451168           -4.600600           -2.602861
 H            6.611925           -5.714512           -3.061910
 H            9.081974           -5.825801           -2.723556
 H           10.233433           -4.162546           -1.318729
 H            8.954536           -2.326545           -0.213181
 H            6.794765           -1.197213            0.212598
 H            4.647806           -0.073731            0.641919
 H            2.488114            1.043762            1.093537
 H            0.948301            2.293375           -1.359364
 H            0.785102            4.581531           -2.308415
 H           -0.033118            6.920329           -2.146523
 H           -1.294354            8.671341           -0.929290
 H           -2.398586            8.161398            1.228945
 H           -2.818408            4.247648            3.971679
 H           -2.947615            6.547193            3.036324
 H           -2.047174            1.897982            3.789265
 H           -0.787177            0.142159            2.580672
 H           -1.355618            1.003934           -2.179097
 H           -3.788155            1.149819           -2.616762
 H           -6.101059            0.375574           -2.169455
 H           -7.677933           -1.068732           -0.901841

