78

 C           -3.977151            4.407363           -2.113316
 C           -4.369604            4.948332           -0.886793
 C           -3.748603            4.532277            0.301724
 C           -2.712619            3.559331            0.244289
 C           -2.323798            3.012457           -1.009078
 C           -2.967135            3.445570           -2.179788
 C           -1.262036            2.024801           -1.040281
 C           -0.629560            1.626051            0.094765
 C            0.482367            0.647657            0.017022
 C            1.775418            1.074026            0.037721
 C            2.879821            0.140448           -0.058671
 C            4.199599            0.564865           -0.032662
 C            5.268880           -0.364949           -0.135011
 C            6.625541            0.057358           -0.113731
 C            7.660936           -0.859284           -0.209225
 C            9.053381           -0.446307           -0.190570
 C           10.052751           -1.360302           -0.280426
 C            9.754269           -2.769627           -0.397243
 C            8.468907           -3.204876           -0.421507
 C            7.362305           -2.268512           -0.330590
 C            6.042695           -2.691839           -0.357072
 C            4.972694           -1.761562           -0.262977
 C            3.616504           -2.183770           -0.290016
 C            2.581327           -1.266995           -0.187793
 C            1.192102           -1.679517           -0.199708
 C            0.181624           -0.772453           -0.096623
 C           -1.230796           -1.224436           -0.080360
 C           -1.892065           -1.334826            1.102079
 C           -3.257971           -1.818314            1.164511
 C           -3.940783           -1.953761            2.384156
 C           -5.251116           -2.435360            2.407633
 C           -5.905950           -2.783473            1.224029
 C           -5.251713           -2.654923           -0.011575
 C           -3.914116           -2.172177           -0.045990
 C           -3.221176           -2.039985           -1.306721
 C           -3.885332           -2.387459           -2.516235
 C           -3.208395           -2.253495           -3.738815
 C           -1.895017           -1.781302           -3.766051
 C           -1.234172           -1.439830           -2.584256
 C           -1.879703           -1.565828           -1.343831
 C           -5.253608           -2.873345           -2.449126
 C           -5.900062           -3.000483           -1.265553
 C           -1.010873            2.160012            1.400067
 C           -0.392526            1.754032            2.593486
 C           -0.790939            2.293456            3.818253
 C           -1.810797            3.244553            3.881573
 C           -2.453012            3.670365            2.708116
 C           -2.054750            3.125752            1.455200
 C           -3.519785            4.657386            2.735248
 C           -4.132228            5.065681            1.598147
 H           -4.465771            4.738893           -3.029379
 H           -5.161522            5.694568           -0.853220
 H           -2.677084            3.027915           -3.142459
 H           -0.988602            1.609020           -2.011623
 H            2.013802            2.135400            0.126245
 H            4.433573            1.624714            0.068332
 H            6.841124            1.121530           -0.020605
 H            9.262608            0.618961           -0.102539
 H           11.100013           -1.062690           -0.267338
 H           10.591750           -3.462112           -0.464396
 H            8.228172           -4.263533           -0.508624
 H            5.807928           -3.751954           -0.449971
 H            3.399862           -3.247143           -0.392521
 H            0.979800           -2.746207           -0.290503
 H           -1.411396           -1.059083            2.042479
 H           -3.445519           -1.680119            3.314366
 H           -5.769196           -2.540156            3.360753
 H           -6.928637           -3.154795            1.260707
 H           -3.709281           -2.518065           -4.668457
 H           -1.379008           -1.678916           -4.720408
 H           -0.207447           -1.074914           -2.626892
 H           -5.740490           -3.131233           -3.389364
 H           -6.926302           -3.363847           -1.216684
 H            0.407563            1.013609            2.565241
 H           -0.299282            1.968590            4.734942
 H           -2.108978            3.657265            4.843864
 H           -3.808761            5.056477            3.707320
 H           -4.932748            5.804840            1.619908

