110

 C           -1.112666           -7.544586           -4.781458
 C            0.116377           -6.811409           -5.023840
 C            0.343949           -5.625493           -4.413769
 C           -0.634921           -5.048798           -3.498927
 C           -0.430638           -3.836663           -2.892504
 C           -1.392418           -3.288157           -1.970968
 C           -1.194098           -2.055520           -1.359986
 C           -2.117438           -1.548474           -0.411099
 C           -1.910227           -0.302660            0.231062
 C           -2.776122            0.164013            1.215127
 C           -3.937429           -0.628160            1.556106
 C           -4.170571           -1.836565            0.905801
 C           -3.279495           -2.327707           -0.078935
 C           -3.495059           -3.564455           -0.739900
 C           -2.584425           -4.052230           -1.671054
 C           -2.785727           -5.307793           -2.349411
 C           -1.858828           -5.799587           -3.232161
 C           -2.048995           -7.067831           -3.928452
 C           -4.837862           -0.141723            2.566891
 C           -4.626655            1.059921            3.191568
 C           -5.544205            1.550861            4.214446
 C           -5.350144            2.747157            4.815368
 C           -4.218860            3.577221            4.450133
 C           -3.331740            3.165834            3.514747
 C           -3.470832            1.878221            2.841138
 C           -2.565628            1.421515            1.903782
 C           -1.373270            2.238330            1.561981
 C           -1.520427            3.326690            0.754806
 C           -0.410379            4.205968            0.451084
 C           -0.558058            5.311430           -0.372125
 C            0.538862            6.173477           -0.641208
 C            0.401380            7.307378           -1.485576
 C            1.476215            8.145900           -1.736166
 C            1.353732            9.311299           -2.594091
 C            2.418287           10.120972           -2.825773
 C            3.701777            9.840822           -2.223006
 C            3.866516            8.763036           -1.414545
 C            2.760063            7.865097           -1.133712
 C            2.906986            6.758629           -0.311600
 C            1.812432            5.892983           -0.046043
 C            1.951062            4.754544            0.793148
 C            0.874616            3.917485            1.043079
 C            0.998764            2.738346            1.875431
 C           -0.060537            1.914068            2.112678
 C            0.128005            0.672952            2.903320
 C           -0.262663            0.597216            4.222659
 C           -0.784076            1.747389            4.953602
 C           -1.179338            1.646082            6.243257
 C           -1.095353            0.380995            6.947976
 C           -0.608951           -0.719166            6.329163
 C           -0.158513           -0.668865            4.942202
 C            0.340446           -1.779168            4.313842
 C            0.808256           -1.722575            2.953842
 C            1.328770           -2.849469            2.326789
 C            1.811322           -2.795133            0.995117
 C            2.296709           -3.947240            0.328371
 C            2.750178           -3.880718           -0.985563
 C            3.208312           -5.051823           -1.687738
 C            3.632898           -4.982989           -2.989833
 C            4.082418           -6.164164           -3.718394
 C            4.499799           -6.077057           -5.002520
 C            4.512612           -4.800841           -5.693203
 C            4.104560           -3.671288           -5.068612
 C            3.641907           -3.699826           -3.685796
 C            3.221637           -2.566121           -3.038139
 C            2.754085           -2.610070           -1.676685
 C            2.294050           -1.470720           -1.023699
 C            1.797191           -1.535771            0.302001
 C            1.259736           -0.395282            0.951611
 C            0.738414           -0.465979            2.239237
 H           -1.247035           -8.487398           -5.308778
 H            0.840373           -7.250238           -5.708022
 H            1.265872           -5.064238           -4.578637
 H            0.477289           -3.261162           -3.084745
 H           -0.304425           -1.468662           -1.594675
 H           -1.040982            0.292619           -0.057112
 H           -5.051396           -2.426366            1.156903
 H           -4.390525           -4.136333           -0.501261
 H           -3.702779           -5.855918           -2.137351
 H           -2.973194           -7.609662           -3.732847
 H           -5.697288           -0.760984            2.822960
 H           -6.389200            0.913217            4.471769
 H           -6.028480            3.122554            5.579340
 H           -4.114848            4.537856            4.951867
 H           -2.485588            3.794004            3.230511
 H           -2.492583            3.571703            0.322264
 H           -1.524493            5.534487           -0.824076
 H           -0.569689            7.509003           -1.937427
 H            0.379955            9.509315           -3.040319
 H            2.337769           10.997370           -3.466838
 H            4.524285           10.520483           -2.440476
 H            4.827532            8.539523           -0.953024
 H            3.871948            6.538064            0.144484
 H            2.923430            4.546662            1.239369
 H            1.980114            2.520849            2.301472
 H           -0.837387            2.696611            4.418019
 H           -1.571575            2.502990            6.788741
 H           -1.434552            0.354569            7.982019
 H           -0.536573           -1.677769            6.841292
 H            0.398267           -2.736599            4.831357
 H            1.365678           -3.799778            2.859596
 H            2.298021           -4.900237            0.857960
 H            3.199640           -6.001559           -1.151981
 H            4.065261           -7.115337           -3.186524
 H            4.838341           -6.952230           -5.554934
 H            4.861706           -4.789273           -6.724712
 H            4.108784           -2.706254           -5.574142
 H            3.231638           -1.599585           -3.541474
 H            2.305896           -0.508229           -1.534937
 H            1.257841            0.551972            0.408410

