110

 C          -11.244842           -8.917712           -1.683211
 C          -11.795884           -8.026560           -2.687398
 C          -11.257532           -6.802676           -2.896601
 C          -10.108667           -6.341553           -2.124421
 C           -9.544505           -5.108476           -2.328381
 C           -8.404882           -4.668716           -1.564361
 C           -7.820202           -3.423639           -1.771281
 C           -6.692825           -3.006882           -1.019544
 C           -6.090488           -1.739836           -1.222431
 C           -4.979954           -1.343422           -0.484924
 C           -4.368318           -0.053521           -0.673777
 C           -3.273904            0.331294            0.057515
 C           -2.666985            1.644200           -0.106329
 C           -1.584014            2.015485            0.625024
 C           -1.003827            3.371366            0.487564
 C           -1.753407            4.462379            0.813283
 C           -1.235859            5.808550            0.675435
 C           -1.990740            6.921307            1.014480
 C           -1.471559            8.233509            0.852971
 C           -2.231257            9.381903            1.204323
 C           -1.719925           10.658290            1.029166
 C           -2.478471           11.843635            1.389674
 C           -1.964021           13.085254            1.200133
 C           -0.646663           13.257977            0.630670
 C            0.103768           12.181174            0.284371
 C           -0.396363           10.830578            0.473701
 C            0.357855            9.717552            0.136582
 C           -0.151573            8.403771            0.320419
 C            0.616517            7.255657           -0.010314
 C            0.102939            5.979225            0.162677
 C            0.874208            4.794484           -0.154383
 C            0.358309            3.542466            0.002243
 C            1.189447            2.360035           -0.321847
 C            2.323344            2.091276            0.376112
 C            3.169763            0.957954            0.032118
 C            4.315560            0.675066            0.730594
 C            5.161985           -0.431235            0.365520
 C            6.324824           -0.724714            1.069951
 C            7.157819           -1.808191            0.693819
 C            8.340689           -2.120967            1.409997
 C            9.152228           -3.185698            1.032455
 C           10.351392           -3.520420            1.757631
 C           11.140368           -4.577982            1.384298
 C           12.352459           -4.933118            2.114736
 C           13.113987           -5.986132            1.737092
 C           12.747077           -6.793066            0.588040
 C           11.637176           -6.507757           -0.131577
 C           10.773713           -5.387427            0.225770
 C            9.642598           -5.086863           -0.488449
 C            8.789571           -3.987370           -0.115969
 C            7.632074           -3.686887           -0.826397
 C            6.793108           -2.610400           -0.443389
 C            5.602288           -2.307134           -1.150577
 C            4.786694           -1.247393           -0.768585
 C            3.568923           -0.934847           -1.472778
 C            2.777890            0.119961           -1.097288
 C            1.537323            0.444656           -1.792988
 C            0.780492            1.503708           -1.426691
 C           -0.987725            1.093904            1.582325
 C           -1.517783           -0.134705            1.777144
 C           -2.695242           -0.580496            1.040006
 C           -3.260182           -1.812596            1.245181
 C           -4.420068           -2.239076            0.503894
 C           -5.008625           -3.481243            0.715174
 C           -6.145264           -3.892025           -0.026252
 C           -6.753979           -5.154798            0.183758
 C           -7.858960           -5.555615           -0.560101
 C           -8.477706           -6.841605           -0.363859
 C           -9.557086           -7.236758           -1.111331
 C          -10.183026           -8.542362           -0.932927
 H          -11.716294           -9.891608           -1.560493
 H          -12.651744           -8.381249           -3.259763
 H          -11.660637           -6.123137           -3.646487
 H           -9.945599           -4.428640           -3.079731
 H           -8.227068           -2.749272           -2.524369
 H           -6.513076           -1.070704           -1.971512
 H           -4.806371            0.612825           -1.416232
 H           -3.118719            2.317850           -0.834260
 H           -2.771510            4.349803            1.189744
 H           -2.998974            6.801369            1.410217
 H           -3.230266            9.242985            1.616736
 H           -3.469563           11.697851            1.817695
 H           -2.522976           13.980687            1.468744
 H           -0.282645           14.274951            0.491003
 H            1.097719           12.295665           -0.146450
 H            1.358597            9.838029           -0.277455
 H            1.622860            7.394005           -0.404880
 H            1.889448            4.938705           -0.527676
 H            2.638093            2.717186            1.210984
 H            4.616820            1.286684            1.580552
 H            6.609581           -0.115580            1.927521
 H            8.608700           -1.510800            2.272218
 H           10.612788           -2.905636            2.618675
 H           12.616022           -4.317924            2.974266
 H           14.018783           -6.261526            2.277070
 H           13.395304           -7.629822            0.332126
 H           11.348755           -7.103502           -0.996771
 H            9.357663           -5.677505           -1.358722
 H            7.355175           -4.284957           -1.694271
 H            5.329593           -2.922800           -2.007354
 H            3.293429           -1.566613           -2.317150
 H            1.242858           -0.204313           -2.618031
 H           -0.151416            1.749537           -1.936190
 H           -0.104910            1.432853            2.124996
 H           -1.080184           -0.834547            2.489505
 H           -2.842886           -2.503370            1.977838
 H           -4.595981           -4.159640            1.461567
 H           -6.339955           -5.817211            0.943677
 H           -8.056992           -7.495664            0.399518
 H           -9.758196           -9.199911           -0.175341

