86

 C           -9.117687           -3.015554           -0.672658
 C           -8.190751           -3.565107            0.152760
 C           -6.860659           -2.992618            0.266964
 C           -5.897885           -3.542010            1.099476
 C           -4.600724           -2.970205            1.195908
 C           -3.598595           -3.532152            2.030760
 C           -2.334596           -2.967848            2.114064
 C           -1.302011           -3.549642            2.952675
 C           -0.065294           -2.995126            3.019574
 C            0.249465           -1.805278            2.267516
 C           -0.685667           -1.214555            1.472310
 C           -0.351595            0.024033            0.727914
 C           -0.671798            1.245068            1.238329
 C           -0.331779            2.469262            0.539834
 C           -0.659117            3.716664            1.048730
 C           -0.307058            4.905979            0.355356
 C           -0.637915            6.190226            0.865511
 C           -0.282813            7.343926            0.183805
 C           -0.608211            8.665109            0.692265
 C           -0.252726            9.782519            0.008440
 C            0.458036            9.683670           -1.246072
 C            0.786721            8.471687           -1.761299
 C            0.432405            7.245169           -1.068512
 C            0.759750            5.997588           -1.576526
 C            0.400780            4.808017           -0.887361
 C            0.724607            3.523627           -1.401638
 C            0.370653            2.370237           -0.718704
 C            0.682865            1.050989           -1.232540
 C            0.338281           -0.076394           -0.551232
 C            0.646140           -1.416221           -1.107767
 C            1.979779           -1.977579           -0.916036
 C            2.967116           -1.325067           -0.193870
 C            4.255358           -1.898607           -0.020588
 C            5.266735           -1.242335            0.731484
 C            6.518943           -1.813806            0.897070
 C            7.561680           -1.163905            1.671832
 C            8.782513           -1.738881            1.818554
 C            9.074866           -3.014241            1.204780
 C            8.132703           -3.662296            0.473614
 C            6.809410           -3.092512            0.288709
 C            5.830927           -3.741577           -0.448016
 C            4.540221           -3.171099           -0.614222
 C            3.521656           -3.833131           -1.349649
 C            2.264051           -3.268838           -1.501718
 C            1.214306           -3.951407           -2.236412
 C           -0.015895           -3.394806           -2.371247
 C           -0.305918           -2.103055           -1.798854
 C           -2.025900           -1.779477            1.349965
 C           -2.996935           -1.225586            0.530145
 C           -4.292021           -1.800817            0.427737
 C           -5.287000           -1.246796           -0.421890
 C           -6.546230           -1.819106           -0.516307
 C           -7.572813           -1.273654           -1.387075
 C           -8.801270           -1.846286           -1.460958
 H          -10.118014           -3.435509           -0.765052
 H           -8.413967           -4.447389            0.751162
 H           -6.125767           -4.426433            1.693516
 H           -3.838385           -4.425009            2.607516
 H           -1.555096           -4.445051            3.518494
 H            0.721614           -3.427548            3.636496
 H            1.257506           -1.399215            2.353167
 H           -1.192437            1.334205            2.193159
 H           -1.194681            3.800729            1.994368
 H           -1.180114            6.255472            1.808558
 H           -1.144895            8.724019            1.638242
 H           -0.490076           10.777719            0.381298
 H            0.717101           10.609181           -1.758022
 H            1.322379            8.381586           -2.705443
 H            1.301046            5.914008           -2.518688
 H            1.259631            3.458452           -2.349106
 H            1.202770            0.989983           -2.190018
 H            2.765038           -0.351041            0.255772
 H            5.040278           -0.275500            1.180683
 H            7.326891           -0.203340            2.128758
 H            9.570911           -1.260853            2.397743
 H           10.069951           -3.431937            1.349537
 H            8.338025           -4.624422            0.006163
 H            6.040925           -4.705201           -0.911005
 H            3.743307           -4.803267           -1.793555
 H            1.448997           -4.923302           -2.668037
 H           -0.815765           -3.901117           -2.910243
 H           -1.309387           -1.698989           -1.933727
 H           -2.776546           -0.329739           -0.053510
 H           -5.042550           -0.358113           -1.003561
 H           -7.319857           -0.392747           -1.975841
 H           -9.577936           -1.445827           -2.110449

