98

 C           -4.954715           -0.086756            5.103608
 C           -3.543309           -0.080701            5.432302
 C           -2.608619           -0.253144            4.467220
 C           -2.991543           -0.438798            3.074301
 C           -2.055747           -0.598709            2.077552
 C           -2.436579           -0.753817            0.704664
 C           -3.840520           -0.785419            0.386531
 C           -4.800775           -0.615455            1.437697
 C           -4.407179           -0.442017            2.744846
 C           -5.367400           -0.260265            3.824851
 C           -4.247237           -0.986470           -0.939561
 C           -3.307912           -1.178759           -1.964337
 C           -3.726837           -1.429465           -3.311547
 C           -2.812022           -1.636951           -4.319461
 C           -3.218482           -1.904155           -5.691947
 C           -2.298169           -2.108682           -6.665250
 C           -0.881494           -2.066063           -6.364451
 C           -0.448794           -1.820949           -5.103891
 C           -1.392161           -1.594704           -4.017773
 C           -0.971760           -1.346936           -2.729711
 C           -1.902160           -1.131435           -1.661534
 C           -1.487534           -0.885985           -0.331011
 C           -0.034895           -0.789539           -0.037120
 C            0.717612           -1.923219            0.038917
 C            2.152178           -1.874504            0.236950
 C            2.921022           -3.026082            0.306054
 C            4.330438           -2.955624            0.472346
 C            5.129920           -4.128094            0.540309
 C            6.504881           -4.047253            0.698667
 C            7.338180           -5.234689            0.770872
 C            8.683184           -5.134413            0.924117
 C            9.319399           -3.840079            1.018719
 C            8.583193           -2.701267            0.958049
 C            7.140716           -2.752762            0.795928
 C            6.370390           -1.601792            0.732563
 C            4.960635           -1.671769            0.570613
 C            4.160553           -0.499240            0.503885
 C            2.785994           -0.581087            0.343563
 C            1.948879            0.600659            0.291559
 C            0.598532            0.516046            0.129809
 C           -0.233284            1.745614            0.156661
 C           -0.564855            2.325155            1.403469
 C           -0.034887            1.838925            2.642883
 C           -0.391498            2.396349            3.850602
 C            0.148234            1.907266            5.111814
 C           -0.238339            2.448150            6.292540
 C           -1.197177            3.533819            6.330289
 C           -1.717636            4.037503            5.185207
 C           -1.335976            3.499084            3.887039
 C           -1.840052            4.001131            2.708370
 C           -1.460919            3.450298            1.440628
 C           -1.945995            3.992801            0.240972
 C           -1.551749            3.472824           -1.000052
 C           -1.996482            4.065221           -2.227425
 C           -1.591827            3.572841           -3.447275
 C           -2.015907            4.174461           -4.704062
 C           -1.598828            3.675238           -5.892463
 C           -0.725431            2.520070           -5.945539
 C           -0.302325            1.920593           -4.806651
 C           -0.707108            2.420948           -3.500000
 C           -0.275771            1.834449           -2.331637
 C           -0.678448            2.329302           -1.048477
 H           -5.663491            0.054173            5.917988
 H           -3.267078            0.071693            6.474180
 H           -1.542947           -0.242358            4.697413
 H           -0.991377           -0.609296            2.319362
 H           -5.857692           -0.625936            1.173801
 H           -6.423957           -0.267191            3.562036
 H           -5.310482           -0.997783           -1.178379
 H           -4.796182           -1.454158           -3.520024
 H           -4.286877           -1.932950           -5.901857
 H           -2.590605           -2.310815           -7.694316
 H           -0.186140           -2.238671           -7.184207
 H            0.612818           -1.789515           -4.861795
 H            0.095262           -1.319399           -2.501381
 H            0.255427           -2.907124           -0.063337
 H            2.450777           -4.006627            0.230904
 H            4.642693           -5.100062            0.464994
 H            6.844465           -6.202844            0.697667
 H            9.317451           -6.017857            0.979834
 H           10.401363           -3.813367            1.139219
 H            9.048394           -1.718812            1.028318
 H            6.841560           -0.621786            0.806530
 H            4.648150            0.472626            0.581439
 H            2.438052            1.570951            0.397478
 H            0.675411            1.010641            2.613283
 H            0.873287            1.095395            5.066696
 H            0.156221            2.089517            7.241797
 H           -1.478415            3.926061            7.306200
 H           -2.438144            4.854368            5.196803
 H           -2.544904            4.832222            2.716314
 H           -2.635845            4.835807            0.274480
 H           -2.663531            4.924764           -2.170192
 H           -2.676929            5.037931           -4.648083
 H           -1.906073            4.119581           -6.837810
 H           -0.430888            2.153969           -6.927468
 H            0.342655            1.042313           -4.829906
 H            0.393569            0.972940           -2.363572

