98

 C            6.544858           -4.889241           -0.937967
 C            5.286542           -4.378035           -0.489830
 C            5.139170           -3.046958           -0.205345
 C            6.246151           -2.143991           -0.356941
 C            6.114833           -0.756820           -0.071823
 C            7.156605            0.144532           -0.224672
 C            8.419895           -0.396220           -0.676126
 C            8.571052           -1.745707           -0.952341
 C            7.491920           -2.652938           -0.804924
 C            7.618658           -4.053641           -1.091308
 C            9.574664            0.477972           -0.843501
 C            9.487734            1.793058           -0.583900
 C            8.237828            2.400040           -0.135475
 C            8.239127            3.762888            0.100619
 C            7.068935            4.431600            0.535710
 C            7.067149            5.845202            0.785991
 C            5.928690            6.470905            1.216178
 C            4.732698            5.717142            1.419217
 C            4.709867            4.368950            1.180729
 C            5.884712            3.675616            0.725198
 C            5.892741            2.261039            0.466926
 C            4.581947            1.603140            0.696756
 C            4.295833            1.124522            2.038994
 C            3.097872            0.559182            2.326294
 C            2.071554            0.416827            1.308079
 C            0.844593           -0.164005            1.586595
 C           -0.150159           -0.293376            0.580191
 C           -1.413897           -0.881428            0.855706
 C           -2.381436           -0.992236           -0.130988
 C           -3.682881           -1.573311            0.139144
 C           -4.631111           -1.645271           -0.836364
 C           -5.962243           -2.254756           -0.590889
 C           -7.071885           -1.555050           -0.113137
 C           -8.287638           -2.312475            0.096487
 C           -8.358102           -3.665212           -0.183222
 C           -7.235935           -4.368356           -0.685181
 C           -7.306218           -5.771379           -0.980767
 C           -6.212585           -6.431415           -1.471473
 C           -4.991081           -5.724492           -1.691502
 C           -4.898970           -4.387631           -1.409624
 C           -6.026101           -3.658886           -0.892910
 C           -9.486996           -1.670415            0.626725
 C           -9.501131           -0.365281            0.944473
 C           -8.319498            0.466017            0.748395
 C           -8.396772            1.809053            1.080989
 C           -7.291597            2.677830            0.897907
 C           -7.340024            4.069890            1.244164
 C           -6.243690            4.867400            1.051862
 C           -5.039467            4.324648            0.503515
 C           -4.967853            3.001594            0.158911
 C           -6.100547            2.138655            0.348059
 C           -6.047050            0.760252            0.001952
 C           -7.109091           -0.107362            0.202289
 C           -4.342499           -1.176011           -2.181644
 C           -3.134454           -0.637104           -2.477621
 C           -2.100543           -0.510513           -1.464743
 C           -0.869317            0.059466           -1.746884
 C            0.127512            0.185522           -0.741689
 C            1.389679            0.777680           -1.015553
 C            2.352483            0.899720           -0.025155
 C            3.644963            1.503782           -0.287492
 C            7.046970            1.597236            0.047970
 H            6.626227           -5.953500           -1.153605
 H            4.452757           -5.069989           -0.382051
 H            4.184429           -2.647017            0.136269
 H            5.130472           -0.449300            0.277845
 H            9.532997           -2.131156           -1.290323
 H            8.581781           -4.429946           -1.431315
 H           10.504987            0.021369           -1.182685
 H           10.347674            2.454029           -0.700723
 H            9.149467            4.345708           -0.045335
 H            7.989385            6.401219            0.625857
 H            5.912257            7.542069            1.410375
 H            3.841450            6.237200            1.767613
 H            3.789167            3.803866            1.338584
 H            5.075812            1.237377            2.792469
 H            2.869349            0.196365            3.328593
 H            0.625616           -0.529814            2.589782
 H           -1.615245           -1.243613            1.864009
 H           -3.882443           -1.935796            1.147882
 H           -9.286596           -4.213351           -0.018677
 H           -8.246482           -6.291491           -0.805582
 H           -6.251094           -7.495019           -1.700795
 H           -4.136702           -6.271542           -2.087532
 H           -3.959049           -3.858668           -1.578883
 H          -10.369703           -2.297559            0.758779
 H          -10.391818            0.115719            1.349928
 H           -9.319820            2.219547            1.490400
 H           -8.262722            4.470457            1.660152
 H           -6.265930            5.924657            1.311672
 H           -4.184919            4.986004            0.369006
 H           -4.054521            2.577319           -0.258238
 H           -5.106922            0.431604           -0.438291
 H           -5.129292           -1.273554           -2.930058
 H           -2.904109           -0.282400           -3.482407
 H           -0.649784            0.422574           -2.750932
 H            1.592158            1.138101           -2.024252
 H            3.845101            1.867286           -1.295766

