90

 C           15.090230            2.404766           -1.967350
 C           14.527620            2.656499           -0.684189
 C           13.220353            2.326965           -0.423849
 C           12.398119            1.726339           -1.427966
 C           12.962095            1.477319           -2.706249
 C           14.327258            1.830501           -2.953104
 C           12.169133            0.878985           -3.733612
 C           10.855963            0.534388           -3.504545
 C           10.028187           -0.077703           -4.540736
 C            8.741284           -0.415421           -4.314141
 C            8.110016           -0.182847           -3.018653
 C            8.888050            0.414549           -1.978239
 C            8.296380            0.652142           -0.712199
 C            6.944149            0.301610           -0.496967
 C            6.195979           -0.273420           -1.518810
 C            4.772727           -0.615268           -1.293575
 C            4.347590           -1.986733           -1.498949
 C            3.053722           -2.345082           -1.305456
 C            2.059015           -1.372815           -0.887057
 C            0.734156           -1.722523           -0.678007
 C           -0.222354           -0.756372           -0.262829
 C           -1.581417           -1.102174           -0.035588
 C           -2.503512           -0.149995            0.373254
 C           -3.893568           -0.485904            0.611438
 C           -4.787810            0.462271            1.009680
 C           -6.211470            0.123190            1.236939
 C           -6.955402           -0.448131            0.180153
 C           -8.290571           -0.793103            0.364837
 C           -8.912705           -0.568488            1.632215
 C           -8.161535            0.009618            2.686636
 C           -6.806884            0.353644            2.472319
 C           -8.810584            0.226694            3.958558
 C          -10.113650           -0.115369            4.147210
 C          -10.901668           -0.706019            3.090423
 C          -10.294662           -0.927221            1.843119
 C          -11.046594           -1.516999            0.759652
 C          -12.365214           -1.863012            0.951045
 C          -13.006387           -1.646719            2.209575
 C          -14.378717           -2.008151            2.396861
 C          -14.997444           -1.801591            3.604316
 C          -14.275329           -1.223656            4.686510
 C          -12.957939           -0.868792            4.530652
 C          -12.283191           -1.069381            3.285755
 C          -10.374852           -1.728416           -0.519969
 C           -9.082598           -1.387792           -0.707143
 C           -4.361305            1.834294            1.207876
 C           -3.071209            2.193186            0.991841
 C           -2.081715            1.218573            0.567409
 C           -0.758869            1.568613            0.347662
 C            0.195665            0.600652           -0.065843
 C            1.555556            0.947339           -0.285813
 C            2.480906           -0.005485           -0.683785
 C            3.874074            0.331310           -0.902180
 C            6.781212           -0.521777           -2.780512
 C            9.098729            1.256961            0.325258
 C           10.395558            1.597551            0.096977
 C           11.023400            1.367805           -1.183471
 C           10.265359            0.778996           -2.208948
 H           16.129195            2.675177           -2.148922
 H           15.151025            3.113370            0.082826
 H           12.788431            2.520272            0.559368
 H           14.746184            1.633642           -3.938880
 H           12.629105            0.701277           -4.705207
 H           10.496977           -0.249937           -5.510288
 H            8.128219           -0.871844           -5.091795
 H            6.492401            0.481998            0.477889
 H            5.100990           -2.712874           -1.802765
 H            2.722673           -3.372439           -1.456330
 H            0.408346           -2.751594           -0.828742
 H           -1.891599           -2.135767           -0.187764
 H           -4.197844           -1.522616            0.466786
 H           -6.472149           -0.610731           -0.782923
 H           -6.229623            0.791130            3.286024
 H           -8.224613            0.671667            4.762410
 H          -10.597969            0.050114            5.112157
 H          -12.945648           -2.308854            0.143981
 H          -14.919593           -2.449754            1.561109
 H          -16.041143           -2.073927            3.752762
 H          -14.786134           -1.069416            5.635649
 H          -12.404746           -0.426047            5.360394
 H          -10.965410           -2.174868           -1.320643
 H           -8.585710           -1.545323           -1.664894
 H           -5.109663            2.559776            1.525462
 H           -2.739102            3.222293            1.128178
 H           -0.432421            2.598451            0.491769
 H            1.862997            1.981966           -0.135096
 H            4.176197            1.367225           -0.747501
 H            6.177233           -0.971449           -3.567930
 H            8.633408            1.432848            1.294764
 H           10.997055            2.057533            0.884216

