62

 C            8.666679            0.656124            2.250067
 C            9.243979            0.170772            1.104147
 C            8.461956           -0.015130           -0.080785
 C            9.052093           -0.505888           -1.288765
 C            8.287154           -0.677429           -2.414374
 C            6.895686           -0.377357           -2.393537
 C            6.298557            0.093595           -1.245631
 C            4.845723            0.389420           -1.242001
 C            4.416451            1.698239           -1.695983
 C            3.098678            2.017223           -1.728288
 C            2.084962            1.063764           -1.312000
 C            0.733620            1.369869           -1.347989
 C           -0.243110            0.421930           -0.939007
 C           -1.631588            0.719427           -0.981744
 C           -2.575792           -0.213272           -0.580692
 C           -3.997248            0.071896           -0.630104
 C           -4.909991           -0.857120           -0.235150
 C           -6.366555           -0.587389           -0.298735
 C           -7.028847            0.054343            0.804109
 C           -6.333480            0.435750            1.995933
 C           -6.998817            1.050169            3.026334
 C           -8.394366            1.322165            2.923720
 C           -9.087886            0.965712            1.795123
 C           -8.420749            0.316059            0.707357
 C           -9.132358           -0.074718           -0.471200
 C           -8.476367           -0.695782           -1.503498
 C           -7.078883           -0.953494           -1.418813
 C           -4.479166           -2.153700            0.251523
 C           -3.159740           -2.461838            0.312897
 C           -2.146093           -1.508654           -0.104462
 C           -0.794425           -1.811802           -0.060472
 C            0.182100           -0.866249           -0.476060
 C            1.569714           -1.168741           -0.446370
 C            2.513714           -0.238275           -0.853643
 C            3.933246           -0.535941           -0.837234
 C            7.077225            0.296419           -0.054152
 C            6.504677            0.804076            1.155693
 C            7.278837            0.980627            2.274411
 H            9.254762            0.801624            3.154942
 H           10.302810           -0.081593            1.074809
 H           10.116260           -0.736726           -1.294173
 H            8.727225           -1.046271           -3.339950
 H            6.310926           -0.529397           -3.300241
 H            5.185919            2.404559           -2.006590
 H            2.762083            2.996307           -2.068335
 H            0.400802            2.348205           -1.694775
 H           -1.947455            1.698484           -1.341086
 H           -4.309110            1.050311           -0.995822
 H           -5.264954            0.226705            2.066761
 H           -6.474305            1.339176            3.935784
 H           -8.894600            1.815455            3.755721
 H          -10.153752            1.169770            1.705710
 H          -10.200491            0.129261           -0.528482
 H           -9.009277           -1.000500           -2.403207
 H           -6.582320           -1.442972           -2.256103
 H           -5.248833           -2.860432            0.560430
 H           -2.822139           -3.432508            0.675274
 H           -0.461255           -2.787170            0.294308
 H            1.884841           -2.152448           -0.099222
 H            4.243915           -1.522618           -0.493309
 H            5.441245            1.047936            1.168185
 H            6.847913            1.369842            3.195547

