94

 C           10.506650            0.180814            5.917741
 C            9.151654           -0.159777            6.306600
 C            8.187114           -0.334227            5.372848
 C            8.478416           -0.186688            3.952151
 C            7.503847           -0.363479            2.999126
 C            7.811434           -0.210954            1.605074
 N            6.836016           -0.383678            0.675483
 C            7.165719           -0.230789           -0.636514
 C            8.526786            0.101925           -1.025493
 N            9.504968            0.277734           -0.093541
 C            9.171675            0.129520            1.215213
 C           10.166959            0.308018            2.233884
 C            9.841667            0.157139            3.560900
 C           10.835460            0.332653            4.613193
 C            8.846199            0.249305           -2.413317
 C            7.877416            0.075047           -3.373738
 C            8.189959            0.225323           -4.789291
 C            7.239535            0.054468           -5.738219
 C            5.881802           -0.288536           -5.367085
 C            5.536147           -0.437280           -4.066292
 C            6.510414           -0.258549           -2.996488
 C            6.164851           -0.396189           -1.663467
 C            4.772787           -0.705885           -1.256223
 C            4.416449           -2.094895           -1.039695
 C            3.148745           -2.430444           -0.692850
 C            2.122306           -1.416861           -0.521086
 C            0.822444           -1.743416           -0.167314
 C           -0.166943           -0.737208            0.001732
 C           -1.502224           -1.059628            0.364471
 C           -2.458484           -0.068621            0.527874
 C           -3.824152           -0.381425            0.903035
 C           -4.747049            0.606660            1.064118
 C           -6.137987            0.297690            1.475554
 C           -6.465729            0.094336            2.804698
 C           -5.473793            0.203870            3.867699
 C           -5.802259           -0.009125            5.163964
 C           -7.158852           -0.354249            5.537393
 C           -8.125470           -0.461366            4.595594
 C           -7.831890           -0.239393            3.185359
 C           -8.817639           -0.347444            2.232777
 C           -8.517223           -0.129667            0.849815
 N           -9.512293           -0.240086           -0.073596
 C           -9.197468           -0.025985           -1.378105
 C          -10.211353           -0.134860           -2.387743
 C           -9.904952            0.082381           -3.710219
 C          -10.917651           -0.022935           -4.753577
 C          -10.607176            0.193458           -6.053549
 C           -9.253789            0.536024           -6.446002
 C           -8.272277            0.647605           -5.520149
 C           -8.543252            0.427848           -4.104866
 C           -7.551082            0.539550           -3.159748
 C           -7.838684            0.315686           -1.771316
 N           -6.845985            0.423546           -0.849541
 C           -7.157169            0.203837            0.457169
 C           -4.389597            1.995661            0.849197
 C           -3.121983            2.330671            0.501551
 C           -2.096872            1.316281            0.327061
 C           -0.797116            1.642625           -0.027420
 C            0.191613            0.636114           -0.197729
 C            1.526596            0.958793           -0.561511
 C            2.483069           -0.032039           -0.723930
 C            3.848744            0.281475           -1.098733
 H           11.242615            0.308546            6.711032
 H            8.942716           -0.268137            7.370351
 H            7.163623           -0.589097            5.648889
 H            6.475320           -0.621575            3.264192
 H           11.178975            0.565599            1.912949
 H           11.849515            0.590017            4.306257
 H            9.877040            0.503644           -2.671932
 H            9.217227            0.481055           -5.049444
 H            7.462904            0.167329           -6.798560
 H            5.155507           -0.421939           -6.168126
 H            4.515201           -0.697853           -3.777322
 H            5.198850           -2.844448           -1.153703
 H            2.864074           -3.469220           -0.527502
 H            0.541099           -2.784530           -0.011978
 H           -1.767209           -2.106272            0.512393
 H           -4.085249           -1.429534            1.045733
 H           -4.453892            0.467452            3.577648
 H           -5.062569            0.073116            5.959716
 H           -7.368009           -0.521037            6.593479
 H           -9.152329           -0.716952            4.857478
 H           -9.848297           -0.600277            2.493596
 H          -11.222057           -0.394651           -2.064410
 H          -11.930506           -0.282110           -4.444202
 H          -11.357258            0.118062           -6.840211
 H           -9.060072            0.698049           -7.505822
 H           -7.249852            0.903466           -5.799193
 H           -6.523363            0.797577           -3.427914
 H           -5.171684            2.745387            0.964667
 H           -2.836355            3.369437            0.337829
 H           -0.515312            2.683742           -0.181991
 H            1.791162            2.005363           -0.710788
 H            4.109137            1.329518           -1.243240

