94

 C            9.639003           -2.482994            6.847288
 C            8.303295           -3.035709            6.731682
 C            7.510276           -2.714701            5.682332
 C            7.971893           -1.806941            4.639493
 C            7.173357           -1.480268            3.569374
 C            7.644965           -0.579709            2.556377
 N            6.840142           -0.262144            1.507836
 C            7.327206            0.596048            0.570349
 C            6.511741            0.964740           -0.551278
 C            6.989511            1.821938           -1.515065
 C            8.337249            2.369465           -1.401645
 C            9.137712            2.042303           -0.331354
 C            8.666366            1.150388            0.685844
 N            9.471876            0.834472            1.737307
 C            8.983693           -0.020086            2.675299
 C            9.794031           -0.382540            3.802952
 C            9.313783           -1.246696            4.758320
 C           10.119547           -1.631696            5.910566
 C            8.816410            3.267624           -2.443347
 C            8.030029            3.600029           -3.493723
 C            6.687830            3.073163           -3.607419
 C            6.185602            2.224090           -2.671708
 C            4.807720            1.696521           -2.820836
 C            4.642320            0.342859           -3.314583
 C            3.402566           -0.167930           -3.518718
 C            2.211386            0.619032           -3.249256
 C            0.937821            0.120677           -3.474325
 C           -0.215313            0.906519           -3.204297
 C           -1.525559            0.411564           -3.442614
 C           -2.643134            1.186383           -3.171332
 C           -3.987096            0.700536           -3.422191
 C           -5.071773            1.477478           -3.152900
 C           -6.450867            1.011162           -3.437105
 C           -7.042416            1.318027           -4.621658
 C           -8.387004            0.875107           -4.919854
 C           -9.085859            0.134676           -4.027838
 C           -8.509981           -0.231005           -2.740788
 C           -9.222697           -0.985096           -1.837253
 C           -8.656560           -1.327964           -0.566241
 N           -9.373187           -2.076252            0.316911
 C           -8.796185           -2.371228            1.512629
 C           -9.508888           -3.161538            2.475054
 C           -8.937312           -3.467187            3.687811
 C           -9.641608           -4.269349            4.680398
 C           -9.071900           -4.565680            5.872414
 C           -7.740010           -4.092215            6.196262
 C           -7.038736           -3.342873            5.313109
 C           -7.597904           -2.990099            4.014234
 C           -6.891183           -2.229743            3.112932
 C           -7.458509           -1.897876            1.837497
 N           -6.742070           -1.152863            0.954233
 C           -7.317258           -0.862041           -0.244026
 C           -6.595260           -0.084988           -1.210365
 C           -7.160234            0.224348           -2.425304
 C           -4.907339            2.805747           -2.594363
 C           -3.668321            3.298951           -2.346271
 C           -2.477969            2.515963           -2.629214
 C           -1.204419            3.010395           -2.394155
 C           -0.051474            2.230009           -2.678618
 C            1.259238            2.731371           -2.455573
 C            2.376696            1.959559           -2.734635
 C            3.721525            2.465780           -2.534618
 H           10.234843           -2.778168            7.710599
 H            7.966530           -3.713177            7.515747
 H            6.503602           -3.120945            5.581521
 H            6.166265           -1.888395            3.454652
 H            5.503205            0.540677           -0.604491
 H           10.147225            2.446403           -0.223419
 H           10.794657            0.051387            3.868492
 H           11.121033           -1.207227            5.984918
 H            9.829436            3.657463           -2.341519
 H            8.378789            4.268510           -4.280822
 H            6.094321            3.377977           -4.470183
 H            5.542152           -0.238388           -3.515394
 H            3.263714           -1.183252           -3.890778
 H            0.804080           -0.888795           -3.863151
 H           -1.640490           -0.594945           -3.845001
 H           -4.096535           -0.302690           -3.834608
 H           -6.520768            1.903790           -5.379359
 H           -8.810041            1.159009           -5.883445
 H          -10.098553           -0.209210           -4.239075
 H          -10.232507           -1.341152           -2.054976
 H          -10.510475           -3.505745            2.206772
 H          -10.641856           -4.618374            4.423140
 H           -9.591142           -5.164001            6.620568
 H           -7.330008           -4.361289            7.169197
 H           -6.036360           -2.979563            5.541155
 H           -5.887395           -1.857899            3.332725
 H           -5.586601            0.247043           -0.941198
 H           -5.807205            3.383263           -2.384033
 H           -3.530009            4.295995           -1.927714
 H           -1.071253            4.010995           -1.982880
 H            1.374039            3.740389           -2.059650
 H            3.830841            3.480601           -2.151825

