96

 C            8.122020           -1.386028            1.665525
 C            6.782929           -1.147135            1.646597
 C            6.220855           -0.038835            0.893293
 C            4.755066            0.160358            0.942654
 C            4.253925            1.420138            1.459655
 C            2.920466            1.658240            1.522546
 C            1.959863            0.666015            1.073790
 C            0.594047            0.894770            1.129467
 C           -0.330959           -0.088203            0.686691
 C           -1.732869            0.133896            0.743245
 C           -2.626891           -0.831495            0.306884
 C           -4.060032           -0.619169            0.357813
 C           -4.927180           -1.575985           -0.076250
 C           -6.390462           -1.360378           -0.031694
 C           -6.960527           -0.310696           -0.696309
 C           -8.378703           -0.127961           -0.615386
 C           -9.251311            0.810504           -1.144888
 C           -9.117194            1.980387           -1.994641
 C           -8.110415            2.022756           -2.975398
 C           -7.972028            3.155707           -3.779546
 C           -8.832344            4.246331           -3.614790
 C           -9.839183            4.202889           -2.644620
 C           -9.985991            3.074843           -1.835674
 O          -10.557884            0.531867           -0.714810
 C          -10.494181           -0.607758            0.100343
 C          -11.765469           -1.052159            0.643829
 C          -12.960718           -0.828416           -0.062447
 C          -14.173622           -1.277278            0.463329
 C          -14.203774           -1.946371            1.691410
 C          -13.017132           -2.161169            2.400246
 C          -11.799353           -1.715285            1.883614
 C           -9.181483           -1.046336            0.184234
 C           -8.542750           -2.144932            0.850295
 C           -7.194518           -2.291085            0.742278
 C           -4.428389           -2.832733           -0.602127
 C           -3.095053           -3.071645           -0.669651
 C           -2.130923           -2.084001           -0.216484
 C           -0.765392           -2.312207           -0.275911
 C            0.161440           -1.331702            0.171539
 C            1.563176           -1.554772            0.120145
 C            2.457251           -0.589150            0.558468
 C            3.890801           -0.801362            0.514207
 C            7.014497            0.798095            0.160010
 C            8.428008            0.568805            0.138414
 C            9.488715            1.203582           -0.490204
 C            9.629457            2.339141           -1.384305
 C           10.797058            3.122983           -1.356762
 C           10.918249            4.221474           -2.209340
 C            9.882639            4.544099           -3.092711
 C            8.723464            3.762115           -3.126408
 C            8.592780            2.660427           -2.278531
 O           10.690222            0.567891           -0.139335
 C           10.366076           -0.488379            0.724192
 C           11.492347           -1.280325            1.186784
 C           12.621814           -1.455544            0.367592
 C           13.687093           -2.241462            0.810769
 C           13.636063           -2.851249            2.068636
 C           12.518083           -2.668943            2.889463
 C           11.447593           -1.884680            2.455732
 C            8.993921           -0.526700            0.917449
 H            8.556458           -2.213409            2.223487
 H            6.089069           -1.777196            2.202856
 H            4.983444            2.156067            1.797669
 H            2.530582            2.598605            1.911678
 H            0.210250            1.838350            1.516541
 H           -2.098327            1.081602            1.138142
 H           -4.418925            0.328314            0.759947
 H           -6.371904            0.393141           -1.281705
 H           -7.446895            1.169560           -3.113176
 H           -7.192861            3.187731           -4.539848
 H           -8.719311            5.128152           -4.242750
 H          -10.509770            5.051460           -2.518122
 H          -10.769285            3.034526           -1.078231
 H          -12.931397           -0.305452           -1.018962
 H          -15.098551           -1.107430           -0.085878
 H          -15.150622           -2.298465            2.096724
 H          -13.041883           -2.675286            3.360018
 H          -10.877763           -1.870967            2.443412
 H           -9.157677           -2.837767            1.421643
 H           -6.673688           -3.107505            1.242336
 H           -5.158676           -3.564805           -0.945946
 H           -2.706919           -4.009287           -1.066892
 H           -0.382070           -3.252968           -0.670117
 H            1.929363           -2.503241           -0.271717
 H            4.252105           -1.751279            0.120504
 H            6.608189            1.634472           -0.405559
 H           11.601295            2.865937           -0.666640
 H           11.821311            4.829653           -2.184711
 H            9.979640            5.402328           -3.755249
 H            7.920133            4.010380           -3.818722
 H            7.694180            2.045386           -2.316127
 H           12.656193           -0.976699           -0.611652
 H           14.558714           -2.381971            0.173035
 H           14.466776           -3.466387            2.409658
 H           12.482131           -3.138411            3.871454
 H           10.583507           -1.732719            3.101485

