94

 C          -17.560489           -1.128663           -2.431048
 C          -17.966919           -0.818427           -1.073006
 C          -17.052055           -0.592870           -0.102404
 C          -15.622244           -0.657255           -0.402669
 N          -14.750018           -0.429184            0.577162
 C          -13.385484           -0.490079            0.295307
 C          -12.475587           -0.247545            1.341154
 C          -11.097143           -0.301009            1.103074
 C          -10.124272           -0.066926            2.131222
 C           -8.781927           -0.135944            1.844614
 C           -7.740152            0.080595            2.834556
 C           -6.431012            0.000193            2.501028
 C           -6.022263           -0.301003            1.135212
 C           -4.573843           -0.357867            0.834668
 C           -4.050039           -1.556305            0.206484
 C           -2.734520           -1.650572           -0.108717
 C           -1.815651           -0.560934            0.169879
 C           -0.471365           -0.637159           -0.157041
 C            0.412341            0.439679            0.123690
 C            1.791244            0.371174           -0.207950
 C            2.646986            1.424282            0.077830
 C            4.059816            1.358676           -0.236732
 C            4.896343            2.392806            0.062681
 C            6.344299            2.296032           -0.227624
 C            7.070535            1.246940            0.239647
 C            8.488504            1.122503           -0.075402
 N            9.153196            0.066496            0.389977
 C           10.506643           -0.066336            0.085964
 C           11.191399           -1.189919            0.584389
 C           12.552312           -1.363276            0.310294
 C           13.299186           -2.486854            0.797334
 C           14.636368           -2.609136            0.506641
 C           15.454002           -3.718057            0.969468
 C           16.769452           -3.788869            0.655323
 C           17.399867           -2.761337           -0.152542
 C           16.695111           -1.703808           -0.615984
 C           15.271117           -1.570630           -0.310081
 N           14.608748           -0.516661           -0.782170
 C           13.251256           -0.384099           -0.489624
 C           12.564487            0.736465           -0.992453
 C           11.202696            0.911899           -0.717345
 C           10.451208            2.034051           -1.201839
 C            9.115942            2.158406           -0.899333
 C            8.286739            3.261161           -1.356874
 C            6.972336            3.329992           -1.038304
 C            4.379417            3.592305            0.691825
 C            3.062421            3.694565            1.002709
 C            2.134157            2.614459            0.716314
 C            0.788598            2.693233            1.041385
 C           -0.098428            1.619486            0.757641
 C           -1.479331            1.685776            1.086171
 C           -2.333345            0.629952            0.804241
 C           -3.746681            0.685664            1.124284
 C           -6.949955           -0.517186            0.166970
 C           -8.374853           -0.447990            0.472223
 N           -9.249398           -0.670327           -0.507328
 C          -10.612805           -0.605134           -0.223520
 C          -11.522192           -0.846014           -1.269537
 C          -12.900312           -0.793783           -1.030961
 C          -13.870681           -1.032735           -2.059697
 C          -15.213533           -0.971156           -1.774628
 C          -16.250405           -1.201733           -2.766538
 H          -18.347354           -1.299106           -3.164983
 H          -19.036634           -0.774257           -0.866522
 H          -17.329666           -0.357467            0.926868
 H          -12.862066           -0.018791            2.337200
 H          -10.476945            0.164052            3.137671
 H           -8.055818            0.307767            3.853347
 H           -5.642738            0.150296            3.239511
 H           -4.746092           -2.370173            0.002244
 H           -2.328104           -2.545041           -0.581032
 H           -0.072021           -1.530307           -0.637481
 H            2.170800           -0.529187           -0.691270
 H            4.429427            0.452340           -0.717865
 H            6.633030            0.462783            0.862661
 H           10.644550           -1.919499            1.186521
 H           12.780933           -3.234164            1.400058
 H           14.967465           -4.482806            1.574657
 H           17.393372           -4.614408            0.996185
 H           18.461979           -2.875671           -0.370932
 H           17.144076           -0.917332           -1.225723
 H           13.110030            1.464522           -1.597492
 H           10.964648            2.778331           -1.812677
 H            8.765189            4.026770           -1.968576
 H            6.342896            4.150312           -1.384230
 H            5.082101            4.394482            0.915529
 H            2.661786            4.588431            1.480911
 H            0.391661            3.585601            1.524712
 H           -1.860985            2.586947            1.565583
 H           -4.123557            1.595453            1.591482
 H           -6.677667           -0.740095           -0.867678
 H          -11.135782           -1.073852           -2.265853
 H          -13.516516           -1.262919           -3.065636
 H          -15.931421           -1.433620           -3.782596

