96

 C           17.526081            2.195759           -1.901439
 C           16.827231            1.263483           -1.210609
 C           15.378398            1.348902           -1.089791
 C           14.651668            0.412234           -0.390496
 C           13.226739            0.510054           -0.277689
 C           12.483498           -0.441211            0.439276
 C           11.090180           -0.336908            0.543963
 C           10.292482           -1.279442            1.271085
 C            8.927035           -1.129869            1.333518
 C            8.054062           -2.040424            2.054313
 C            6.713532           -1.853936            2.076227
 C            6.102303           -0.729901            1.379838
 C            4.630703           -0.583130            1.450909
 C            4.095277            0.672595            1.942978
 C            2.755676            0.865719            2.024510
 C            1.822417           -0.170986            1.621182
 C            0.451235            0.016883            1.687043
 C           -0.448028           -1.006434            1.284334
 C           -1.854389           -0.814755            1.330956
 C           -2.724718           -1.815950            0.928259
 C           -4.161052           -1.623345            0.945676
 C           -5.008368           -2.611109            0.540060
 C           -6.472696           -2.397217            0.533025
 C           -7.322376           -3.347920            1.236615
 C           -8.665043           -3.178691            1.284203
 C           -9.304142           -2.044385            0.638708
 C          -10.659208           -1.811808            0.674656
 C          -11.213194           -0.660521            0.024694
 C          -12.582795           -0.363551            0.034857
 C          -13.079416            0.779235           -0.613171
 C          -14.477762            1.092480           -0.612144
 C          -14.959847            2.211504           -1.253054
 C          -16.378980            2.538784           -1.268798
 C          -16.834009            3.643066           -1.908060
 C          -15.917240            4.533798           -2.591213
 C          -14.587052            4.278771           -2.606805
 C          -14.040413            3.103503           -1.942424
 C          -12.693127            2.823449           -1.954828
 C          -12.170019            1.661143           -1.299294
 C          -10.798808            1.370578           -1.315128
 C          -10.305826            0.226441           -0.664621
 N           -8.934051           -0.017530           -0.700693
 C           -8.453607           -1.093582           -0.079978
 C           -7.014320           -1.326912           -0.105322
 C           -4.482340           -3.886511            0.093242
 C           -3.144084           -4.107612            0.059617
 C           -2.200252           -3.081022            0.467287
 C           -0.828861           -3.279388            0.419517
 C            0.075130           -2.255805            0.814956
 C            1.483453           -2.435899            0.752016
 C            2.352450           -1.425534            1.137552
 C            3.792325           -1.586688            1.067813
 C            6.867247            0.158157            0.693274
 C            8.317375            0.005767            0.638527
 N            9.028845            0.905113           -0.039688
 C           10.414398            0.763247           -0.102621
 C           11.156052            1.719958           -0.817530
 C           12.550587            1.611010           -0.915060
 C           13.327826            2.573970           -1.638885
 C           14.696514            2.461829           -1.732164
 C           15.500941            3.431908           -2.462717
 C           16.847227            3.304451           -2.542067
 H           18.609522            2.141929           -1.997510
 H           17.322312            0.423531           -0.724686
 H           15.149475           -0.427551            0.093859
 H           12.997803           -1.272605            0.921453
 H           10.791960           -2.111054            1.769530
 H            8.520211           -2.876149            2.576725
 H            6.051030           -2.529777            2.617561
 H            4.803019            1.445235            2.244292
 H            2.340101            1.803357            2.393894
 H            0.042170            0.960606            2.047600
 H           -2.242697            0.139997            1.686351
 H           -4.538128           -0.660425            1.292475
 H           -6.835635           -4.190543            1.728205
 H           -9.308138           -3.884157            1.810952
 H          -11.333967           -2.491164            1.196697
 H          -13.272993           -1.029298            0.553018
 H          -15.155504            0.418015           -0.089374
 H          -17.056008            1.861541           -0.749605
 H          -17.893292            3.895115           -1.928836
 H          -16.336635            5.408374           -3.086377
 H          -13.885086            4.939637           -3.114396
 H          -11.991920            3.482797           -2.467225
 H          -10.095735            2.027706           -1.831936
 H           -6.407550           -0.604309           -0.656830
 H           -5.194131           -4.648444           -0.223103
 H           -2.737376           -5.061017           -0.277375
 H           -0.423444           -4.228901            0.071133
 H            1.874724           -3.386379            0.389652
 H            4.177765           -2.532767            0.688190
 H            6.439953            1.007495            0.154425
 H           10.627228            2.547923           -1.295046
 H           12.803225            3.402124           -2.116307
 H           14.977439            4.259533           -2.940205
 H           17.457737            4.024111           -3.085595

