96

 C          -12.586090            0.914054            4.301199
 C          -11.330127            0.607524            3.896744
 C          -11.036283            0.341818            2.495119
 C           -9.766656            0.028396            2.065545
 C           -9.492436           -0.231281            0.683264
 C           -8.198556           -0.550991            0.241700
 C           -7.941554           -0.802048           -1.112805
 C           -6.637157           -1.125046           -1.608940
 C           -6.438640           -1.357637           -2.950155
 C           -5.142349           -1.681386           -3.537585
 C           -3.947914           -1.724258           -2.659478
 C           -3.478139           -3.018108           -2.204102
 C           -2.378402           -3.110967           -1.415333
 C           -1.643361           -1.926076           -1.007403
 C           -0.512684           -2.004256           -0.209149
 C            0.195273           -0.833662            0.176409
 C            1.354435           -0.900478            0.995493
 C            2.034387            0.248937            1.368894
 C            3.209478            0.198777            2.218177
 C            3.855797            1.339081            2.585725
 C            5.034079            1.300099            3.485861
 C            6.361154            1.112227            2.908761
 C            6.603095            0.995383            1.559555
 C            7.937606            0.804313            1.074603
 C            8.241169            0.675301           -0.287480
 C            9.564496            0.486113           -0.717288
 C            9.887005            0.352987           -2.107186
 C           11.185825            0.169699           -2.524793
 C           11.529012            0.034430           -3.933869
 C           12.813247           -0.144230           -4.326113
 C           13.883235           -0.206140           -3.350359
 C           13.620861           -0.086883           -2.026698
 C           12.259625            0.107134           -1.545088
 C           11.972535            0.231007           -0.204716
 C           10.627744            0.423760            0.253203
 C           10.331567            0.552494            1.617543
 C            9.005736            0.742061            2.043682
 N            8.755573            0.868224            3.409038
 C            7.502608            1.045207            3.824591
 C            7.262438            1.180710            5.259866
 C            6.007638            1.368648            5.728279
 C            4.874040            1.429527            4.829788
 C            3.391947            2.631986            2.121541
 C            2.297732            2.723743            1.325180
 C            1.564197            1.538416            0.915958
 C            0.435218            1.616221            0.115462
 C           -0.272544            0.445573           -0.270150
 C           -1.432801            0.512764           -1.087398
 C           -2.114883           -0.636295           -1.457902
 C           -3.296607           -0.584793           -2.297415
 C           -5.027289           -1.928569           -4.869517
 C           -6.177517           -1.857972           -5.745990
 C           -7.403467           -1.543913           -5.268670
 C           -7.596335           -1.279656           -3.844222
 N           -8.822457           -0.981169           -3.417862
 C           -9.027257           -0.733280           -2.061537
 C          -10.323824           -0.413175           -1.623338
 C          -10.573315           -0.160521           -0.266881
 C          -11.887093            0.168565            0.203367
 C          -12.127954            0.414023            1.536146
 C          -13.457103            0.748336            2.030277
 C          -13.673975            0.985909            3.346242
 H          -12.816972            1.114397            5.346582
 H          -10.502352            0.549773            4.602776
 H           -8.939958           -0.028520            2.773840
 H           -7.381822           -0.604497            0.962353
 H           -5.807947           -1.180918           -0.899230
 H           -4.037126           -3.899949           -2.516640
 H           -2.012538           -4.076602           -1.066049
 H           -0.149516           -2.972994            0.134269
 H            1.703241           -1.877166            1.330868
 H            3.551302           -0.779045            2.558207
 H            5.786247            1.045148            0.835378
 H            7.437993            0.722485           -1.023543
 H            9.073479            0.400707           -2.831145
 H           10.714431            0.082723           -4.655680
 H           13.080903           -0.246186           -5.376936
 H           14.897206           -0.351200           -3.720987
 H           14.414814           -0.131590           -1.281760
 H           12.766781            0.185199            0.541003
 H           11.125245            0.507568            2.366460
 H            8.135342            1.122331            5.913442
 H            5.808947            1.474963            6.795361
 H            3.887365            1.576640            5.269427
 H            3.949489            3.514144            2.436150
 H            1.934712            3.688684            0.971116
 H            0.072385            2.584685           -0.229021
 H           -1.781606            1.489372           -1.422972
 H           -3.640997            0.393440           -2.633745
 H           -4.065078           -2.178289           -5.316831
 H           -6.014958           -2.061553           -6.805066
 H           -8.286691           -1.474199           -5.907003
 H          -11.131716           -0.364928           -2.356572
 H          -12.695384            0.219550           -0.526667
 H          -14.265176            0.798896            1.301162
 H          -14.663828            1.236272            3.725868

