96

 C           -7.981581            0.982471           -7.371873
 C           -6.541323            0.829386           -7.281452
 C           -5.952063            0.420603           -6.134533
 C           -6.759700            0.125112           -4.951499
 N           -6.143123           -0.269833           -3.839799
 C           -6.906582           -0.550160           -2.706838
 C           -6.245185           -0.956648           -1.534686
 C           -6.967603           -1.250054           -0.368311
 C           -8.403304           -1.137911           -0.382081
 C           -9.062274           -0.728575           -1.553629
 C           -8.344661           -0.428470           -2.717749
 C           -8.973235           -0.000811           -3.933138
 C           -8.213953            0.278819           -5.044460
 C           -8.778742            0.720566           -6.308611
 C           -9.139972           -1.446256            0.805769
 C           -8.502662           -1.849036            1.957055
 C           -9.247931           -2.163231            3.168688
 C           -8.613039           -2.560286            4.297279
 C           -7.170395           -2.684679            4.325293
 C           -6.430102           -2.400462            3.226978
 C           -7.053970           -1.964568            1.984369
 C           -6.318134           -1.663084            0.851318
 C           -4.837578           -1.756713            0.872381
 C           -4.229423           -3.021775            0.506755
 C           -2.881673           -3.169846            0.537270
 C           -2.013755           -2.072747            0.929674
 C           -0.635202           -2.209457            0.971801
 C            0.197682           -1.124030            1.356711
 C            1.611761           -1.251738            1.403563
 C            2.414161           -0.185691            1.781179
 C            3.858494           -0.303540            1.843600
 C            4.629140            0.751357            2.227025
 C            6.104539            0.633039            2.328613
 C            6.691423            0.212532            3.509799
 C            5.911215           -0.107599            4.698158
 C            6.507339           -0.522673            5.841609
 C            7.946698           -0.664512            5.916191
 C            8.722956           -0.377075            4.844113
 C            8.136377            0.078432            3.590968
 C            8.917945            0.375043            2.497756
 C            8.336921            0.821709            1.268428
 C            9.143168            1.124230            0.157966
 C            8.578329            1.563554           -1.045162
 C            9.360395            1.877471           -2.205089
 C            8.747429            2.306324           -3.358238
 C            9.472413            2.639195           -4.573132
 C            8.815877            3.056947           -5.681789
 C            7.370361            3.185414           -5.689679
 C            6.636078            2.892139           -4.592312
 C            7.287630            2.433910           -3.365509
 N            6.530745            2.149964           -2.308092
 C            7.145360            1.710282           -1.135699
 C            6.336723            1.405022           -0.027043
 C            6.906425            0.959466            1.175359
 C            4.022437            2.024641            2.565299
 C            2.675463            2.176544            2.521297
 C            1.807728            1.078378            2.132051
 C            0.429084            1.215099            2.089329
 C           -0.403581            0.129361            1.705646
 C           -1.817718            0.257322            1.658170
 C           -2.620100           -0.808861            1.281632
 C           -4.065481           -0.695955            1.235952
 H           -8.392018            1.314237           -8.324896
 H           -5.954865            1.055963           -8.172025
 H           -4.871680            0.295328           -6.035894
 H           -5.153182           -1.038781           -1.550579
 H          -10.148983           -0.642792           -1.554843
 H          -10.059060            0.097624           -3.952615
 H           -9.861306            0.831551           -6.363716
 H          -10.225340           -1.352975            0.776100
 H          -10.331939           -2.064544            3.129228
 H           -9.159492           -2.795676            5.209322
 H           -6.708391           -3.012957            5.255217
 H           -5.342030           -2.490141            3.238666
 H           -4.890972           -3.835040            0.208687
 H           -2.410011           -4.114679            0.267307
 H           -0.168714           -3.157850            0.706054
 H            2.061460           -2.207189            1.134245
 H            4.303702           -1.262229            1.576627
 H            4.826842            0.001673            4.632161
 H            5.928205           -0.760563            6.732690
 H            8.373726           -1.007582            6.857356
 H            9.806878           -0.477207            4.882109
 H           10.001939            0.274104            2.546928
 H           10.224881            1.014080            0.235451
 H           10.443827            1.767137           -2.149599
 H           10.557287            2.539067           -4.554173
 H            9.347024            3.309087           -6.598924
 H            6.901027            3.526003           -6.612846
 H            5.547747            2.979017           -4.567610
 H            5.251784            1.521459           -0.121117
 H            4.684761            2.842097            2.850213
 H            2.204584            3.126390            2.774621
 H           -0.037320            2.164996            2.349962
 H           -2.267014            1.214360            1.922543
 H           -4.510710            0.263001            1.501853

