96

 C           18.042617            2.000071           -0.183376
 C           17.532540            2.916214           -1.186213
 C           16.203616            3.046276           -1.403109
 C           15.246015            2.260583           -0.625982
 N           13.945880            2.416723           -0.867177
 C           13.027338            1.670144           -0.129840
 C           11.657652            1.843247           -0.392163
 C           10.698246            1.115239            0.326634
 C            9.296636            1.276336            0.075553
 C            8.356887            0.563190            0.785715
 C            6.932382            0.716470            0.538328
 C            6.013822            0.006145            1.246418
 C            4.563469            0.149811            0.989947
 C            3.984213            1.478293            1.061641
 C            2.665137            1.669350            0.812489
 C            1.798348            0.557207            0.465285
 C            0.452783            0.739714            0.190044
 C           -0.381069           -0.360354           -0.146014
 C           -1.760820           -0.182173           -0.429889
 C           -2.570069           -1.262698           -0.745537
 C           -3.984379           -1.097140           -1.013723
 C           -4.775700           -2.168070           -1.305210
 C           -6.226665           -1.993751           -1.536027
 C           -7.009181           -1.378660           -0.608562
 C           -8.428076           -1.167266           -0.839820
 C           -9.223492           -0.530329            0.086021
 C          -10.617534           -0.310118           -0.159075
 C          -11.427710            0.343873            0.780479
 C          -12.793429            0.548833            0.522685
 N          -13.560512            1.200560            1.487774
 C          -14.856991            1.396000            1.257194
 C          -15.654836            2.077543            2.275635
 C          -16.975800            2.292861            2.079751
 C          -17.633329            1.858023            0.861698
 C          -16.942722            1.223056           -0.115599
 C          -15.521238            0.957491            0.027501
 C          -14.769749            0.316733           -0.929484
 C          -13.370845            0.086479           -0.717341
 C          -12.554121           -0.562693           -1.652942
 C          -11.188261           -0.771112           -1.398858
 C          -10.341151           -1.434207           -2.346420
 C           -9.002917           -1.634042           -2.091144
 C           -8.122635           -2.299955           -3.041869
 C           -6.805232           -2.473769           -2.780938
 C           -4.206303           -3.500026           -1.373029
 C           -2.886003           -3.698723           -1.131126
 C           -2.005867           -2.591865           -0.797585
 C           -0.658965           -2.776993           -0.525941
 C            0.180569           -1.678235           -0.195436
 C            1.562472           -1.851341            0.086432
 C            2.368979           -0.769246            0.407573
 C            3.784007           -0.925441            0.684014
 C            6.442817           -0.924566            2.279186
 C            7.757901           -1.103204            2.545334
 C            8.783831           -0.373881            1.812695
 C           10.125353           -0.547938            2.067595
 C           11.120905            0.183421            1.340856
 C           12.490704            0.011510            1.598742
 C           13.454511            0.735841            0.884787
 C           14.861963            0.595356            1.115510
 C           15.762188            1.334843            0.385080
 C           17.201331            1.246554            0.564622
 H           19.122987            1.942484           -0.057339
 H           18.259756            3.494076           -1.757086
 H           15.790776            3.726563           -2.150602
 H           11.354768            2.553934           -1.164392
 H            8.992127            1.982021           -0.697954
 H            6.630395            1.415119           -0.242489
 H            4.641488            2.306505            1.326546
 H            2.216596            2.661296            0.865008
 H            0.014206            1.736682            0.228539
 H           -2.177947            0.823957           -0.393506
 H           -4.391603           -0.086654           -0.973030
 H           -6.595978           -1.025459            0.336846
 H           -8.805736           -0.176477            1.029090
 H          -11.009630            0.701975            1.724023
 H          -15.132015            2.393375            3.180642
 H          -17.585395            2.798703            2.828835
 H          -18.698997            2.061986            0.765486
 H          -17.426292            0.892657           -1.034360
 H          -15.219163           -0.027753           -1.861252
 H          -12.986021           -0.911216           -2.591213
 H          -10.784974           -1.777106           -3.281134
 H           -8.566287           -2.649688           -3.974034
 H           -6.140640           -2.964558           -3.491823
 H           -4.874159           -4.327180           -1.612348
 H           -2.447198           -4.695307           -1.176866
 H           -0.224460           -3.775758           -0.560711
 H            1.983639           -2.855458            0.044667
 H            4.202982           -1.929855            0.625771
 H            5.668840           -1.460738            2.828347
 H            8.090678           -1.797384            3.316941
 H           10.458415           -1.249482            2.832639
 H           12.809753           -0.695051            2.365230
 H           15.197325           -0.106849            1.879290
 H           17.572350            0.554447            1.320052

