86

 C           10.594740           -3.273110            3.453297
 C            9.341173           -3.128486            2.990018
 C            9.189023           -2.060462            1.996186
 C            8.059417           -1.662047            1.342288
 C            8.126770           -0.574893            0.394228
 C            6.981342           -0.138875           -0.288098
 C            7.035688            0.916048           -1.211698
 C            8.297352            1.558184           -1.464076
 C            9.443332            1.126269           -0.780412
 C            9.384275            0.074738            0.144395
 C           10.565919           -0.366327            0.850954
 C           10.449550           -1.388966            1.732100
 S           11.712257           -2.115714            2.717486
 C            8.375932            2.640540           -2.418386
 C            7.244449            3.023660           -3.056726
 S            7.058777            4.296440           -4.256942
 C            5.324037            3.997778           -4.435249
 C            4.901551            3.001153           -3.638969
 C            5.958181            2.398641           -2.819405
 C            5.852487            1.373081           -1.915248
 C            4.539146            0.738505           -1.658598
 C            4.182955           -0.429815           -2.440554
 C            2.969654           -1.015380           -2.285471
 C            1.999901           -0.494772           -1.337472
 C            0.747586           -1.068097           -1.182767
 C           -0.188473           -0.542337           -0.251634
 C           -1.474806           -1.121142           -0.083936
 C           -2.377870           -0.602991            0.831781
 C           -3.685177           -1.198217            1.031829
 C           -4.550170           -0.688157            1.950970
 C           -5.862051           -1.324691            2.210242
 C           -5.973106           -2.319163            3.147813
 C           -4.924079           -2.883873            4.003287
 C           -5.350189           -3.856798            4.826406
 S           -7.079428           -4.176956            4.632338
 C           -7.257394           -2.947789            3.386377
 C           -8.381772           -2.597987            2.717085
 C           -8.297512           -1.548735            1.726908
 C           -7.037848           -0.903354            1.472864
 C           -6.978170            0.120258            0.515075
 C           -8.116006            0.520654           -0.200936
 C           -8.042943            1.575230           -1.184662
 C           -9.164694            1.938309           -1.871805
 C           -9.309902            2.969185           -2.905112
 C          -10.556193            3.083321           -3.395696
 S          -11.674733            1.940090           -2.639662
 C          -10.422671            1.262523           -1.606787
 C          -10.544337            0.270072           -0.692428
 C           -9.371066           -0.133275            0.049706
 C           -9.435797           -1.152535            1.009681
 C           -4.194124            0.480457            2.732648
 C           -2.982066            1.068059            2.575127
 C           -2.013329            0.548523            1.625609
 C           -0.761398            1.122753            1.469868
 C            0.174321            0.597224            0.538472
 C            1.461086            1.175634            0.371316
 C            2.364472            0.656654           -0.543442
 C            3.672818            1.250386           -0.741737
 H           10.971741           -3.974517            4.180065
 H            8.485837           -3.720893            3.291367
 H            7.098607           -2.144174            1.515835
 H            6.025512           -0.632078           -0.095111
 H           10.397438            1.618038           -0.972653
 H           11.512131            0.135115            0.655605
 H            9.339817            3.114556           -2.596539
 H            4.756623            4.596683           -5.128787
 H            3.883695            2.631985           -3.568399
 H            4.917861           -0.810497           -3.150106
 H            2.685575           -1.890950           -2.869347
 H            0.462605           -1.935159           -1.778725
 H           -1.743166           -1.987770           -0.688042
 H           -3.946937           -2.069730            0.430915
 H           -3.908391           -2.508203            3.935210
 H           -4.788377           -4.427301            5.547960
 H           -9.344046           -3.074844            2.896119
 H           -6.024181            0.616912            0.321624
 H           -7.084249            2.061748           -1.357904
 H           -8.455509            3.560250           -3.211872
 H          -10.927119            3.753974           -4.153909
 H          -11.488706           -0.234476           -0.496381
 H          -10.388293           -1.646906            1.202991
 H           -4.928702            0.860268            3.443022
 H           -2.698398            1.944423            3.158139
 H           -0.476569            1.990058            2.065676
 H            1.729451            2.042220            0.975598
 H            3.934666            2.121744           -0.140499

