86

 C           13.347421            0.385680            3.580518
 C           12.024088            0.610318            3.505989
 C           11.451831            0.381970            2.174891
 C           10.154750            0.517052            1.773180
 C            9.796027            0.238456            0.402395
 C           10.811537           -0.174095           -0.528092
 C           10.461434           -0.435242           -1.860031
 C            9.136066           -0.305609           -2.299661
 C            8.779095           -0.568365           -3.674888
 C            7.482416           -0.435164           -4.045180
 S            6.795870           -0.684564           -5.644460
 C            5.168176           -0.284195           -5.103915
 C            5.122844            0.022019           -3.788737
 C            3.888126            0.382997           -3.072317
 C            3.172586            1.567746           -3.509756
 C            1.997894            1.915813           -2.928673
 C            1.421123            1.115733           -1.862358
 C            0.203997            1.439289           -1.283444
 C           -0.348236            0.643346           -0.243727
 C           -1.596717            0.962904            0.355166
 C           -2.118143            0.188038            1.380166
 C           -3.371410            0.522957            2.029676
 C           -3.849696           -0.232306            3.057649
 C           -5.076834            0.137232            3.783166
 C           -5.101191            0.499976            5.084228
 S           -6.725546            0.891914            5.641321
 C           -7.439264            0.558298            4.069513
 C           -8.745746            0.648581            3.721438
 C           -9.125069            0.317343            2.367100
 C          -10.461970            0.398070            1.951363
 C          -10.834074            0.069352            0.640471
 C           -9.829137           -0.362212           -0.292838
 C           -8.491463           -0.437448            0.123814
 C           -8.115959           -0.103633            1.434041
 C           -6.737245           -0.177745            1.857525
 C           -6.402550            0.146943            3.140260
 C          -10.210226           -0.711146           -1.641238
 C          -11.518421           -0.623992           -2.019504
 C          -12.113393           -0.926410           -3.325632
 C          -13.442887           -0.735400           -3.380710
 S          -14.096411           -0.166372           -1.838337
 C          -12.517613           -0.180084           -1.063319
 C          -12.212730            0.156025            0.213270
 C           -3.135336           -1.417734            3.495092
 C           -1.965556           -1.771502            2.907618
 C           -1.391888           -0.975520            1.836401
 C           -0.176921           -1.301564            1.254647
 C            0.374831           -0.506540            0.213722
 C            1.623571           -0.825527           -0.384575
 C            2.147143           -0.048116           -1.406791
 C            3.403622           -0.378894           -2.051828
 C            6.434529           -0.042752           -3.120255
 C            6.748890            0.219823           -1.818277
 C            8.116133            0.096549           -1.370078
 C            8.469969            0.363313           -0.038572
 C           12.178064           -0.312158           -0.076059
 C           12.461787           -0.041479            1.220746
 S           14.022139           -0.127651            2.027761
 H           14.002293            0.478382            4.431911
 H           11.392559            0.931254            4.325390
 H            9.374205            0.832825            2.462966
 H           11.232448           -0.744242           -2.566399
 H            9.561106           -0.863327           -4.372740
 H            4.352333           -0.313149           -5.809218
 H            3.614978            2.161604           -4.309810
 H            1.450467            2.803999           -3.244414
 H           -0.348974            2.315502           -1.621886
 H           -2.141077            1.836197           -0.003985
 H           -3.904580            1.408200            1.681903
 H           -4.271885            0.575264            5.770269
 H           -9.519657            0.958380            4.421898
 H          -11.225087            0.721419            2.659918
 H           -7.728601           -0.762989           -0.584274
 H           -5.983024           -0.497326            1.138099
 H           -9.437567           -1.040545           -2.333486
 H          -11.492358           -1.270649           -4.143603
 H          -14.113321           -0.882007           -4.212128
 H          -12.963714            0.488187            0.928403
 H           -3.574857           -2.007240            4.299883
 H           -1.419575           -2.661053            3.222058
 H            0.375310           -2.178620            1.592187
 H            2.167029           -1.699968           -0.026791
 H            3.934912           -1.266304           -1.706500
 H            5.986677            0.525991           -1.101363
 H            7.698874            0.674785            0.666947
 H           12.936958           -0.629090           -0.789708

