86

 C           10.606091            4.011618            1.736019
 C            9.355715            3.520354            1.784803
 C            9.181755            2.252598            1.067645
 C            8.049227            1.504674            0.924395
 C            8.092320            0.275973            0.166862
 C            9.330670           -0.152015           -0.423926
 C            9.368374           -1.349002           -1.152211
 C            8.218252           -2.134272           -1.319470
 C            8.273675           -3.369005           -2.068527
 C            7.138643           -4.095639           -2.204215
 S            6.927433           -5.622796           -3.052017
 C            5.204513           -5.705832           -2.658917
 C            4.803847           -4.648049           -1.933296
 C            5.869404           -3.684741           -1.636715
 C            5.785719           -2.515522           -0.925319
 C            4.491153           -2.080228           -0.352126
 C            4.150295           -2.533770            0.982571
 C            2.957487           -2.202153            1.536303
 C            1.994144           -1.389423            0.814045
 C            0.761991           -1.060253            1.356806
 C           -0.168417           -0.266492            0.633212
 C           -1.433487            0.079068            1.179604
 C           -2.329468            0.861748            0.467747
 C           -3.612676            1.246707            1.023575
 C           -4.470171            2.034142            0.318312
 C           -5.755547            2.486199            0.899194
 C           -5.813235            3.646122            1.628366
 C           -4.726657            4.581557            1.937799
 C           -5.103413            5.636847            2.679621
 S           -6.827358            5.585491            3.073679
 C           -7.072663            4.076267            2.203264
 C           -8.223451            3.376942            2.057361
 C           -8.195397            2.152749            1.289719
 C           -9.362823            1.396064            1.111174
 C           -9.352039            0.209481            0.365169
 C           -8.123501           -0.237683           -0.231875
 C           -8.108075           -1.456084           -1.006872
 C           -9.257249           -2.175999           -1.160763
 C           -9.459731           -3.429157           -1.895872
 C          -10.721029           -3.892381           -1.854374
 S          -11.784630           -2.838095           -0.912598
 C          -10.487088           -1.709065           -0.545136
 C          -10.555767           -0.571247            0.187308
 C           -6.956231            0.518945           -0.048677
 C           -6.961635            1.704491            0.702175
 C           -4.131867            2.482746           -1.018807
 C           -2.943351            2.142880           -1.576561
 C           -1.981543            1.326697           -0.855883
 C           -0.751081            0.994408           -1.400196
 C            0.179324            0.200193           -0.676712
 C            1.444996           -0.143658           -1.222356
 C            2.342694           -0.923155           -0.508849
 C            3.629731           -1.300224           -1.060963
 C            6.974443           -1.704792           -0.739203
 C            6.942386           -0.508991           -0.005420
 C           10.516259            0.658681           -0.258065
 C           10.421675            1.805066            0.457937
 S           11.693075            2.968730            0.808356
 H           10.995767            4.916636            2.173495
 H            8.517825            3.981122            2.293817
 H            7.103596            1.810669            1.368730
 H           10.309210           -1.675782           -1.596690
 H            9.223745           -3.679040           -2.500725
 H            4.625872           -6.546552           -3.005351
 H            3.796306           -4.471677           -1.571848
 H            4.880397           -3.145716            1.512594
 H            2.685721           -2.536737            2.537592
 H            0.489014           -1.410711            2.352280
 H           -1.690274           -0.280311            2.176200
 H           -3.861538            0.894574            2.025088
 H           -3.723701            4.388828            1.571992
 H           -4.506137            6.459544            3.037771
 H           -9.166492            3.701217            2.494545
 H          -10.296255            1.737214            1.560549
 H           -7.169676           -1.777148           -1.455783
 H           -8.632556           -3.901834           -2.411369
 H          -11.130934           -4.782035           -2.304518
 H          -11.479634           -0.223643            0.646722
 H           -6.022320            0.175878           -0.501036
 H           -4.860526            3.097792           -1.547181
 H           -2.673675            2.473386           -2.579794
 H           -0.478868            1.343144           -2.396509
 H            1.701569            0.215090           -2.219263
 H            3.879200           -0.946977           -2.061972
 H            6.000815           -0.180379            0.441905
 H           11.447538            0.325736           -0.713239

