78

 C           10.476270           -4.077605            0.159065
 C           11.186398           -2.897698           -0.072871
 C           10.528559           -1.657479           -0.041378
 C            9.132156           -1.614526            0.226542
 C            8.418964           -2.822414            0.461308
 C            9.105507           -4.046428            0.424756
 C            6.993381           -2.747420            0.731948
 C            6.342074           -1.560361            0.753670
 C            7.038814           -0.307313            0.512990
 C            6.381371            0.939248            0.525659
 C            4.920280            1.035118            0.754543
 C            4.456454            1.313030            2.100240
 C            3.130001            1.423737            2.361178
 C            2.142134            1.273041            1.306811
 C            0.783374            1.390166            1.554058
 C           -0.167844            1.235950            0.509683
 C           -1.562899            1.353539            0.751091
 C           -2.481625            1.202025           -0.276079
 C           -3.908341            1.324435           -0.045605
 C           -4.796265            1.175916           -1.066629
 C           -6.254831            1.320815           -0.847074
 C           -7.042664            0.231126           -0.425340
 C           -6.489513           -1.096112           -0.211166
 C           -7.264745           -2.127991            0.198724
 C           -8.685324           -1.953027            0.448925
 C           -9.499469           -3.010440            0.884557
 C          -10.860849           -2.802021            1.116659
 C          -11.435309           -1.544634            0.919182
 C          -10.647962           -0.467183            0.481855
 C           -9.259858           -0.668094            0.244574
 C           -8.434215            0.431097           -0.201719
 C           -9.017634            1.710618           -0.412437
 C          -10.438674            1.883829           -0.164166
 C          -11.209809            0.854838            0.261523
 C           -8.207903            2.770876           -0.850779
 C           -6.844424            2.574865           -1.062867
 C           -4.333446            0.885211           -2.410040
 C           -3.007815            0.760435           -2.668638
 C           -2.019198            0.917660           -1.615687
 C           -0.660445            0.803767           -1.863764
 C            0.291091            0.957179           -0.819181
 C            1.686125            0.842248           -1.061027
 C            2.604973            0.994045           -0.033664
 C            4.032109            0.881304           -0.265726
 C            7.106727            2.120601            0.313123
 C            8.478684            2.084359            0.070224
 C            9.160446            0.857332            0.031886
 C            8.438797           -0.346768            0.258574
 C           10.586285            0.781247           -0.236899
 C           11.233370           -0.408116           -0.274615
 H           10.997605           -5.034322            0.132405
 H           12.254584           -2.939315           -0.278746
 H            8.565873           -4.974813            0.603722
 H            6.467535           -3.684022            0.917421
 H            5.270255           -1.507846            0.957039
 H            5.207318            1.426546            2.882016
 H            2.766167            1.628024            3.368036
 H            0.424359            1.605136            2.560260
 H           -1.903929            1.567623            1.763831
 H           -4.244023            1.541226            0.968635
 H           -5.421820           -1.230970           -0.397476
 H           -6.846477           -3.122625            0.353411
 H           -9.066671           -3.996821            1.042496
 H          -11.482055           -3.630841            1.455682
 H          -12.498148           -1.398872            1.104444
 H          -10.859350            2.875288           -0.331463
 H          -12.274767            0.987178            0.451869
 H           -8.646634            3.752631           -1.024272
 H           -6.223017            3.406267           -1.397989
 H           -5.084510            0.772456           -3.191651
 H           -2.645248            0.538309           -3.672148
 H           -0.301285            0.595014           -2.871207
 H            2.027427            0.632177           -2.074504
 H            4.368374            0.672049           -1.281353
 H            6.585241            3.078293            0.334983
 H            9.023812            3.013188           -0.092905
 H           11.114280            1.718951           -0.409908
 H           12.302022           -0.464233           -0.481228

