86

 C            9.108944            5.455881            0.595624
 C            7.710194            5.611499            0.266848
 C            6.932000            4.526530            0.022774
 C            7.481893            3.183835            0.086890
 C            6.702675            2.062758           -0.152530
 C            7.257803            0.756762           -0.081926
 C            6.466893           -0.399778           -0.315575
 C            7.015744           -1.671293           -0.251872
 C            8.421506           -1.824217            0.049792
 C            9.201639           -0.703060            0.289703
 C            8.647002            0.602969            0.233477
 C            9.435460            1.759290            0.479122
 C            8.881574            3.028144            0.413279
 C            9.670037            4.221844            0.665346
 C            8.987536           -3.160616            0.090744
 C            8.215162           -4.251427           -0.143477
 C            6.809141           -4.108816           -0.431551
 C            6.227782           -2.877650           -0.481397
 C            4.779464           -2.753480           -0.775488
 C            4.371306           -2.715468           -2.166809
 C            3.058329           -2.632263           -2.496410
 C            2.028897           -2.578338           -1.472922
 C            0.682280           -2.508336           -1.793444
 C           -0.311421           -2.457601           -0.778780
 C           -1.695242           -2.396347           -1.095079
 C           -2.655690           -2.345637           -0.096172
 C           -4.073213           -2.298926           -0.401328
 C           -5.001523           -2.254805            0.593189
 C           -6.455146           -2.242264            0.299192
 C           -7.143200           -3.415541            0.221202
 C           -8.556434           -3.426117           -0.066889
 C           -9.229249           -2.266008           -0.273660
 C           -8.546897           -0.986313           -0.202553
 C           -9.224539            0.204695           -0.414572
 C           -8.556222            1.454922           -0.329088
 C           -9.239115            2.681788           -0.545746
 C           -8.574760            3.894812           -0.451974
 C           -9.254361            5.159147           -0.674223
 C           -8.585644            6.336552           -0.578074
 C           -7.178348            6.359839           -0.249929
 C           -6.499541            5.204595           -0.032635
 C           -7.166685            3.918060           -0.125764
 C           -6.489971            2.726858            0.086134
 C           -7.158766            1.477470           -0.013403
 C           -6.473445            0.250019            0.191511
 C           -7.133044           -0.965739            0.099772
 C           -4.590756           -2.240410            1.984221
 C           -3.275845           -2.285166            2.313695
 C           -2.246899           -2.346727            1.290120
 C           -0.899857           -2.409969            1.610695
 C            0.093262           -2.470953            0.596049
 C            1.476424           -2.546743            0.912496
 C            2.436464           -2.603404           -0.086494
 C            3.851816           -2.694360            0.218922
 H            9.690335            6.357102            0.784275
 H            7.307580            6.622097            0.223124
 H            5.876565            4.628282           -0.226581
 H            5.646253            2.169669           -0.399152
 H            5.407960           -0.270282           -0.548945
 H           10.260049           -0.812342            0.524271
 H           10.489694            1.632103            0.722496
 H           10.722455            4.089094            0.912303
 H           10.049885           -3.252846            0.312756
 H            8.628932           -5.258863           -0.119990
 H            6.228829           -5.014736           -0.604833
 H            5.152358           -2.756761           -2.925789
 H            2.736599           -2.605694           -3.537368
 H            0.366496           -2.491877           -2.836257
 H           -1.993703           -2.392447           -2.143328
 H           -4.368678           -2.305878           -1.450433
 H           -6.645523           -4.373235            0.371912
 H           -9.057881           -4.392059           -0.112994
 H          -10.295596           -2.258363           -0.495322
 H          -10.288474            0.195303           -0.649342
 H          -10.300627            2.654430           -0.789118
 H          -10.314678            5.126101           -0.920744
 H           -9.084983            7.289835           -0.744305
 H           -6.687436            7.329418           -0.184572
 H           -5.439055            5.206414            0.216100
 H           -5.428211            2.733993            0.332970
 H           -5.407064            0.279644            0.425054
 H           -5.371876           -2.194378            2.742882
 H           -2.952391           -2.278819            3.354448
 H           -0.583441           -2.414508            2.653446
 H            1.774363           -2.562355            1.960793
 H            4.145847           -2.718641            1.268214

