98

 C            8.910187           -4.018502            6.581121
 C            7.472003           -3.919196            6.728211
 C            6.739763           -3.163489            5.874977
 C            7.373758           -2.428996            4.788657
 C            6.647961           -1.653629            3.912737
 C            7.287145           -0.937089            2.848916
 C            6.553772           -0.146903            1.950492
 C            7.189366            0.549277            0.910132
 C            6.449846            1.350938           -0.018951
 C            7.077531            2.036728           -1.034812
 C            8.523814            1.953925           -1.168672
 C            9.252954            1.181745           -0.291364
 C            8.617984            0.456624            0.767743
 C            9.351869           -0.335315            1.665470
 C            8.715865           -1.035355            2.702250
 C            9.451167           -1.849112            3.624933
 C            8.817133           -2.529388            4.640213
 C            9.551093           -3.358379            5.586768
 C            9.169457            2.699827           -2.239445
 C            8.444489            3.451560           -3.101779
 C            7.005471            3.528863           -2.984098
 C            6.347339            2.856250           -2.002486
 C            4.870617            2.951974           -1.903105
 C            4.312395            3.970725           -1.034543
 C            2.969006            4.128388           -0.934704
 C            2.055955            3.285098           -1.686690
 C            0.681117            3.441958           -1.605925
 C           -0.197394            2.606696           -2.347479
 C           -1.608122            2.762246           -2.277966
 C           -2.455227            1.938606           -3.003692
 C           -3.897064            2.091289           -2.953350
 C           -4.712063            1.275733           -3.676766
 C           -6.185864            1.441805           -3.664805
 C           -6.789580            2.206324           -4.613514
 C           -8.224118            2.387386           -4.619643
 C           -8.999100            1.803891           -3.674537
 C           -8.413505            0.972329           -2.632639
 C           -9.193962            0.375980           -1.666919
 C           -8.618317           -0.453811           -0.651321
 C           -9.404251           -1.064321            0.339021
 C           -8.825630           -1.880530            1.323554
 C           -9.614028           -2.508435            2.342357
 C           -9.035565           -3.308465            3.302284
 C           -9.823614           -3.954353            4.343185
 C           -9.236599           -4.738913            5.278763
 C           -7.803899           -4.955681            5.269907
 C           -7.022962           -4.379086            4.324858
 C           -7.597817           -3.527440            3.292681
 C           -6.821675           -2.933916            2.322710
 C           -7.402544           -2.097255            1.314955
 C           -6.617060           -1.485785            0.325532
 C           -7.195165           -0.665061           -0.655475
 C           -6.401579           -0.027581           -1.663859
 C           -6.972321            0.773117           -2.627650
 C           -4.154935            0.225430           -4.507590
 C           -2.812474            0.048799           -4.584479
 C           -1.899426            0.900099           -3.841352
 C           -0.524810            0.741509           -3.920010
 C            0.353942            1.583293           -3.185861
 C            1.764803            1.434806           -3.264244
 C            2.612156            2.260187           -2.540525
 C            4.054926            2.130691           -2.619209
 H            9.449751           -4.639459            7.294642
 H            7.007952           -4.471777            7.543580
 H            5.657945           -3.080961            5.972787
 H            5.565932           -1.568583            4.011258
 H            5.471782           -0.073019            2.061290
 H            5.365344            1.403687            0.098646
 H           10.336116            1.108538           -0.386948
 H           10.433412           -0.407212            1.554509
 H           10.531721           -1.917330            3.502780
 H           10.631322           -3.424704            5.463278
 H           10.253711            2.630022           -2.317297
 H            8.916479            4.016462           -3.904857
 H            6.469328            4.142603           -3.707683
 H            5.008038            4.597264           -0.476400
 H            2.534839            4.892245           -0.289711
 H            0.253512            4.214571           -0.967319
 H           -2.018209            3.546470           -1.641607
 H           -4.303607            2.882088           -2.322908
 H           -6.211726            2.704613           -5.391672
 H           -8.651306            3.007113           -5.407209
 H          -10.080470            1.934635           -3.664312
 H          -10.273716            0.523639           -1.658786
 H          -10.481599           -0.901445            0.342961
 H          -10.689942           -2.336411            2.339664
 H          -10.899184           -3.782080            4.338158
 H           -9.817036           -5.227366            6.059970
 H           -7.384342           -5.594321            6.045570
 H           -5.944648           -4.532679            4.306280
 H           -5.743201           -3.089444            2.301865
 H           -5.539383           -1.650193            0.319179
 H           -5.322294           -0.193966           -1.648241
 H           -4.850390           -0.405641           -5.060567
 H           -2.378950           -0.734465           -5.206103
 H           -0.097443           -0.037144           -4.551304
 H            2.174951            0.656991           -3.908269
 H            4.461597            1.358851           -3.272493

