98

 C          -17.414126            2.182043           -1.830840
 C          -16.678363            3.271721           -2.439986
 C          -15.323781            3.269117           -2.453103
 C          -14.569216            2.173656           -1.860073
 C          -13.192746            2.151155           -1.868917
 C          -12.464486            1.062703           -1.287809
 C          -11.061736            1.028819           -1.298549
 C          -10.357789           -0.041725           -0.725600
 C           -8.926184           -0.080752           -0.724765
 C           -8.241223           -1.128051           -0.150086
 C           -6.788572           -1.164513           -0.121296
 C           -6.120895           -2.197703            0.459226
 C           -4.642305           -2.218371            0.511483
 C           -3.941760           -3.353821           -0.057944
 C           -2.586069           -3.401066           -0.052782
 C           -1.797704           -2.325008            0.522562
 C           -0.411944           -2.351175            0.524711
 C            0.340572           -1.282419            1.083134
 C            1.761054           -1.289837            1.076035
 C            2.484384           -0.238251            1.618913
 C            3.933945           -0.222456            1.603248
 C            4.632582            0.821364            2.132934
 C            6.111556            0.848609            2.094175
 C            6.785407            0.731419            0.918346
 C            8.238366            0.730965            0.879550
 C            8.929464            0.600570           -0.304367
 C           10.361289            0.576119           -0.329433
 C           11.071564            0.430758           -1.531215
 C           12.474472            0.399834           -1.545391
 C           13.209419            0.250516           -2.766213
 C           14.585989            0.228041           -2.771952
 C           15.347579            0.084231           -4.004997
 C           16.702139            0.070778           -3.991927
 C           17.431150            0.196880           -2.745929
 C           16.772703            0.330010           -1.569356
 C           15.317130            0.353088           -1.521065
 C           14.629389            0.491175           -0.336035
 C           13.197056            0.520940           -0.306301
 C           12.486080            0.666028            0.895799
 C           11.082571            0.697438            0.910373
 C           10.342394            0.845218            2.129190
 C            8.965454            0.861780            2.131759
 C            8.193335            1.002350            3.359104
 C            6.839308            0.995588            3.344808
 C            3.931361            1.939562            2.734846
 C            2.575490            1.966392            2.768007
 C            1.787435            0.881491            2.209518
 C            0.401514            0.898768            2.224058
 C           -0.350696           -0.168115            1.662259
 C           -1.771223           -0.153664            1.656056
 C           -2.494392           -1.197903            1.099522
 C           -3.943773           -1.189305            1.069183
 C           -6.854784           -3.304872            1.051363
 C           -8.208873           -3.316028            1.047908
 C           -8.974637           -2.226909            0.456678
 C          -10.351602           -2.210683            0.462865
 C          -11.085475           -1.124753           -0.117815
 C          -12.488998           -1.089966           -0.106582
 C          -13.193626           -0.019425           -0.680033
 C          -14.625865            0.027357           -0.678940
 C          -15.307110            1.079967           -1.248330
 C          -16.762434            1.138848           -1.262805
 H          -18.501607            2.234987           -1.848714
 H          -17.251930            4.084322           -2.883036
 H          -14.756193            4.080625           -2.906826
 H          -12.627160            2.965216           -2.321954
 H          -10.509701            1.847885           -1.758947
 H           -8.388713            0.745102           -1.190266
 H           -6.254448           -0.334107           -0.583548
 H           -4.539155           -4.153167           -0.495924
 H           -2.047806           -4.245174           -0.483774
 H            0.121752           -3.197516            0.092961
 H            2.278778           -2.139343            0.631017
 H            4.445271           -1.074151            1.154438
 H            6.256120            0.635830           -0.029891
 H            8.396851            0.509577           -1.250697
 H           10.524502            0.339326           -2.469221
 H           12.649017            0.155458           -3.696080
 H           14.785412           -0.009878           -4.933219
 H           17.280653           -0.033630           -4.908492
 H           18.518896            0.180780           -2.793440
 H           17.307943            0.425551           -0.625409
 H           15.165896            0.582435            0.608043
 H           13.034540            0.754418            1.833525
 H           10.900046            0.943216            3.060376
 H            8.748537            1.110695            4.290796
 H            6.256164            1.090205            4.260679
 H            4.528491            2.754212            3.144287
 H            2.036709            2.804303            3.210421
 H           -0.132515            1.738451            2.668326
 H           -2.289042            0.698718            2.095534
 H           -4.455157           -0.332557            1.508306
 H           -6.276409           -4.111920            1.500817
 H           -8.768754           -4.140087            1.489907
 H          -10.913906           -3.028117            0.913636
 H          -13.042236           -1.907170            0.355985
 H          -15.167399           -0.796467           -0.214806
 H          -17.302917            0.313046           -0.801887

