98

 C            2.824425            2.925307            5.184579
 C            2.316626            1.799478            4.463248
 C            2.915773            1.391611            3.302127
 C            4.064055            2.087245            2.791336
 C            4.704937            1.684932            1.590026
 C            5.812364            2.359867            1.099814
 C            6.317850            3.493073            1.830196
 C            5.701574            3.896248            3.004027
 C            4.568207            3.206862            3.508620
 C            3.916107            3.609913            4.723029
 C            7.483464            4.209360            1.320137
 C            8.102397            3.831387            0.184578
 C            7.637259            2.686808           -0.593196
 C            8.292903            2.307975           -1.753303
 C            7.847663            1.197822           -2.518013
 C            8.529842            0.793192           -3.714828
 C            8.084782           -0.280709           -4.436666
 C            6.932749           -1.010035           -4.014127
 C            6.254246           -0.647230           -2.876076
 C            5.054662           -1.413246           -2.461829
 C            5.256786           -2.651668           -1.734407
 C            4.196089           -3.403849           -1.349128
 C            2.836159           -2.994976           -1.654051
 C            1.741899           -3.757984           -1.278532
 C            0.418705           -3.342624           -1.587369
 C           -0.710291           -4.118226           -1.210239
 C           -1.996593           -3.704412           -1.518546
 C           -3.163043           -4.483854           -1.142592
 C           -4.414701           -4.069265           -1.459958
 C           -4.617219           -2.829087           -2.184064
 C           -6.007450           -2.437269           -2.517162
 C           -6.694854           -1.463381           -1.704593
 C           -6.094683           -0.869262           -0.563339
 C           -6.765370            0.067589            0.207106
 C           -8.101891            0.449266           -0.166883
 C           -8.703367           -0.126593           -1.274001
 C           -8.021310           -1.092541           -2.059840
 C           -8.643129           -1.701371           -3.201752
 C           -7.967825           -2.630637           -3.945385
 C           -6.633553           -3.003360           -3.600961
 C           -8.809852            1.445404            0.632134
 C           -8.243441            2.010795            1.715880
 C           -6.895450            1.653332            2.148655
 C           -6.336642            2.241361            3.272207
 C           -5.028357            1.898382            3.702539
 C           -4.432683            2.496138            4.864687
 C           -3.168616            2.144887            5.254836
 C           -2.422244            1.178410            4.510073
 C           -2.962345            0.591648            3.397714
 C           -4.286950            0.936885            2.962283
 C           -4.871015            0.342961            1.812737
 C           -6.149616            0.679229            1.395277
 C           -3.555138           -2.060378           -2.550743
 C           -2.198916           -2.466063           -2.235806
 C           -1.104697           -1.699879           -2.607541
 C            0.218407           -2.113708           -2.297187
 C            1.347998           -1.340035           -2.676744
 C            2.634724           -1.756999           -2.372330
 C            3.798316           -0.983471           -2.761224
 C            6.702816            0.472927           -2.085463
 C            6.044511            0.870666           -0.892107
 C            6.485878            1.949862           -0.142504
 H            2.322368            3.223068            6.103666
 H            1.445461            1.279542            4.858062
 H            2.536123            0.537256            2.743209
 H            4.303690            0.822807            1.052328
 H            6.082396            4.754237            3.557691
 H            4.310271            4.469613            5.262612
 H            7.832143            5.065305            1.899181
 H            8.973033            4.367625           -0.194115
 H            9.166774            2.861870           -2.095541
 H            9.405740            1.358260           -4.029860
 H            8.595008           -0.599330           -5.344803
 H            6.600460           -1.856751           -4.614364
 H            6.281666           -2.947970           -1.511724
 H            4.332335           -4.336202           -0.801329
 H            1.884205           -4.694690           -0.740188
 H           -0.547836           -5.052260           -0.672942
 H           -2.995555           -5.412912           -0.597832
 H           -5.297573           -4.645386           -1.183594
 H           -5.077199           -1.170279           -0.296292
 H           -9.716732            0.156786           -1.557409
 H           -9.659991           -1.407771           -3.457668
 H           -8.429654           -3.101720           -4.812164
 H           -6.121049           -3.741610           -4.217373
 H           -9.817486            1.712697            0.312370
 H           -8.773443            2.756366            2.309910
 H           -6.899425            2.979614            3.843104
 H           -5.009578            3.231818            5.422783
 H           -2.707629            2.592528            6.133823
 H           -1.418894            0.924394            4.847680
 H           -2.402420           -0.143942            2.821589
 H           -4.286585           -0.393451            1.256259
 H           -3.694478           -1.124381           -3.092169
 H           -1.248509           -0.764486           -3.148412
 H            1.187112           -0.407318           -3.217416
 H            3.633249           -0.052206           -3.303585
 H            5.169373            0.299768           -0.567640

