90

 C            9.723276           -2.730405           -1.982467
 C           10.566465           -1.603646           -1.944739
 C           10.126970           -0.411416           -1.374252
 C            8.809700           -0.327581           -0.820735
 C            7.971228           -1.467527           -0.873463
 C            8.443943           -2.668016           -1.456912
 C            6.642402           -1.355738           -0.332041
 C            6.204457           -0.195505            0.228596
 C            7.034247            0.982180            0.334294
 C            8.331145            0.895627           -0.215375
 C            9.218612            2.034543           -0.192811
 C            8.791266            3.211512            0.369426
 C            7.489730            3.322721            0.947539
 C            7.125232            4.582791            1.517819
 C            5.897526            4.754191            2.101560
 C            4.994137            3.664799            2.139764
 C            5.319086            2.434806            1.593036
 C            4.248346            1.417677            1.747391
 C            4.318853            0.515226            2.882696
 C            3.316086           -0.365706            3.122320
 C            2.151877           -0.434406            2.255772
 C            1.112334           -1.319589            2.494781
 C           -0.017580           -1.373321            1.634519
 C           -1.093304           -2.271001            1.872437
 C           -2.190646           -2.312316            1.026810
 C           -3.301048           -3.220388            1.257277
 C           -4.366017           -3.252745            0.418814
 C           -4.421127           -2.372756           -0.735560
 C           -5.570254           -2.517383           -1.664850
 C           -6.765282           -1.715962           -1.637930
 C           -7.714258           -1.964394           -2.672582
 C           -7.504018           -2.993510           -3.643454
 C           -6.368029           -3.759069           -3.612286
 C           -5.393361           -3.507305           -2.616360
 C           -8.907930           -1.187063           -2.780164
 C           -9.181555           -0.181637           -1.886553
 C          -10.391272            0.627387           -2.009196
 C          -10.675029            1.610578           -1.131443
 C           -9.781443            1.904105           -0.016921
 C           -8.589376            1.126483            0.133581
 C           -7.725675            1.400660            1.221959
 C           -8.041568            2.438002            2.132551
 C           -9.196576            3.183086            1.966147
 C          -10.069521            2.917536            0.894167
 C           -6.544306            0.591761            1.368849
 C           -6.250609           -0.395553            0.479409
 C           -7.081972           -0.687199           -0.665185
 C           -8.261534            0.074892           -0.803504
 C           -3.401139           -1.508510           -0.995688
 C           -2.245575           -1.436285           -0.121612
 C           -1.201369           -0.557303           -0.364722
 C           -0.074700           -0.500278            0.499388
 C            0.995197            0.405014            0.266461
 C            2.088641            0.454062            1.117561
 C            3.177618            1.387772            0.905382
 C            6.591348            2.215415            0.957340
 C           10.553982            1.917925           -0.772673
 C           10.984188            0.767413           -1.328302
 H           10.087870           -3.653374           -2.431962
 H           11.567311           -1.673801           -2.367456
 H            7.790893           -3.538553           -1.488480
 H            5.990092           -2.227339           -0.389324
 H            5.179918           -0.165561            0.597019
 H            9.441599            4.086327            0.387516
 H            7.843283            5.401456            1.478235
 H            5.603500            5.707501            2.537752
 H            4.023248            3.811461            2.616928
 H            5.198520            0.575280            3.523861
 H            3.353142           -1.046830            3.972497
 H            1.148679           -1.989503            3.353581
 H           -1.041924           -2.932198            2.737176
 H           -3.245704           -3.875123            2.126882
 H           -5.205748           -3.928659            0.580579
 H           -8.264661           -3.154629           -4.406797
 H           -6.195526           -4.549706           -4.340673
 H           -4.482851           -4.109361           -2.616118
 H           -9.597166           -1.407945           -3.595331
 H          -11.054777            0.401262           -2.844278
 H          -11.577382            2.215110           -1.222834
 H           -7.367343            2.642265            2.962705
 H           -9.440142            3.982019            2.665641
 H          -10.974133            3.513342            0.784566
 H           -5.890273            0.788356            2.218678
 H           -5.354853           -0.988905            0.657232
 H           -3.427331           -0.848970           -1.863525
 H           -1.233217            0.106046           -1.229091
 H            0.942427            1.068140           -0.596989
 H            3.111408            2.063634            0.052477
 H           11.188310            2.803996           -0.735552
 H           11.980815            0.679411           -1.760784

