62

 C           -8.575247           -1.472056            2.201078
 C           -8.953695           -0.170523            1.990207
 C           -8.137166            0.705063            1.204346
 C           -8.518589            2.064616            0.972553
 C           -7.724612            2.888848            0.216162
 C           -6.507235            2.405142           -0.340553
 C           -6.110654            1.103383           -0.130292
 C           -4.829721            0.625566           -0.703845
 C           -4.839936            0.093396           -2.052786
 C           -3.691195           -0.336967           -2.631300
 C           -2.425316           -0.279829           -1.921022
 C           -1.240440           -0.705815           -2.500498
 C           -0.013315           -0.648383           -1.786043
 C            1.209829           -1.070982           -2.372917
 C            2.398145           -1.023656           -1.660696
 C            3.659724           -1.445823           -2.243791
 C            4.811425           -1.404980           -1.528416
 C            4.808407           -0.938010           -0.155425
 C            6.091804           -0.941908            0.586897
 C            6.944125            0.215474            0.558237
 C            6.610222            1.392123           -0.185484
 C            7.444947            2.480958           -0.181203
 C            8.659538            2.456380            0.564948
 C            9.008916            1.340376            1.282073
 C            8.157317            0.189184            1.294889
 C            8.507576           -0.983616            2.036296
 C            7.679751           -2.077339            2.036794
 C            6.458253           -2.057381            1.306363
 C            3.652544           -0.521313            0.430438
 C            2.398603           -0.542605           -0.297799
 C            1.213099           -0.116342            0.281398
 C           -0.009446           -0.152846           -0.441005
 C           -1.228606            0.289319            0.138945
 C           -2.418099            0.237563           -0.571449
 C           -3.669394            0.690567            0.004956
 C           -6.928119            0.212273            0.647204
 C           -6.563981           -1.152641            0.879120
 C           -7.365456           -1.970321            1.634822
 H           -9.188296           -2.143578            2.799980
 H           -9.877778            0.219010            2.414294
 H           -9.448041            2.428113            1.407925
 H           -8.007886            3.924096            0.030623
 H           -5.893638            3.084104           -0.932100
 H           -5.795717            0.052464           -2.574315
 H           -3.683812           -0.739414           -3.643947
 H           -1.235418           -1.095185           -3.518332
 H            1.199170           -1.434185           -3.400338
 H            3.646934           -1.794728           -3.276038
 H            5.764044           -1.716334           -1.955912
 H            5.679098            1.404306           -0.753981
 H            7.195066            3.378027           -0.745091
 H            9.299456            3.337215            0.552598
 H            9.935878            1.309570            1.852476
 H            9.440641           -0.987733            2.597551
 H            7.938822           -2.976142            2.594968
 H            5.817859           -2.938670            1.329410
 H            3.637413           -0.162193            1.459364
 H            1.205711            0.253168            1.306740
 H           -1.215255            0.673852            1.158702
 H           -3.648834            1.083572            1.021352
 H           -5.637051           -1.527622            0.442568
 H           -7.092564           -3.008911            1.814001

