74

 C          -11.716066            2.721543            2.960897
 C          -10.930728            2.011799            3.934940
 C           -9.784870            1.373894            3.567564
 C           -9.336619            1.396357            2.193821
 C           -8.161626            0.744202            1.795273
 C           -7.741084            0.776890            0.457857
 C           -6.530277            0.117493            0.034950
 C           -6.126309            0.163509           -1.270912
 C           -4.866993           -0.488144           -1.692230
 C           -4.908043           -1.485277           -2.744418
 C           -3.776333           -2.124059           -3.134469
 C           -2.493803           -1.826922           -2.520129
 C           -1.326693           -2.471821           -2.900452
 C           -0.084280           -2.164758           -2.281286
 C            1.122358           -2.814948           -2.657971
 C            2.325187           -2.502744           -2.042407
 C            3.572253           -3.150557           -2.410276
 C            4.739819           -2.827542           -1.799003
 C            4.773490           -1.815236           -0.761088
 C            6.070397           -1.467572           -0.140176
 C            6.530171           -0.179792           -0.162284
 C            7.779569            0.169848            0.467709
 C            8.258660            1.487759            0.458624
 C            9.471019            1.814669            1.081827
 C            9.979950            3.167281            1.083017
 C           11.161391            3.464584            1.692031
 C           11.924335            2.436106            2.347264
 C           11.477366            1.149290            2.369684
 C           10.229746            0.789471            1.735275
 C            9.749692           -0.528786            1.744217
 C            8.537237           -0.856132            1.120710
 C            8.020540           -2.206317            1.115786
 C            6.838884           -2.503121            0.508291
 C            3.627460           -1.185735           -0.377781
 C            2.358334           -1.501779           -1.000699
 C            1.188845           -0.861148           -0.623264
 C           -0.047357           -1.171792           -1.248033
 C           -1.247925           -0.516452           -0.867613
 C           -2.452432           -0.825684           -1.478868
 C           -3.685523           -0.171121           -1.091886
 C           -6.917272            0.867008           -2.252073
 C           -8.064183            1.502631           -1.885656
 C           -8.520851            1.484033           -0.514146
 C           -9.696290            2.136198           -0.115098
 C          -10.117650            2.103883            1.222687
 C          -11.326193            2.767339            1.656249
 H          -12.625089            3.216515            3.298570
 H          -11.279050            2.001029            4.966317
 H           -9.178847            0.833060            4.293082
 H           -7.567098            0.205719            2.532668
 H           -5.949703           -0.419705            0.784934
 H           -5.874487           -1.706291           -3.196541
 H           -3.794854           -2.881008           -3.918077
 H           -1.347570           -3.228795           -3.684159
 H            1.087290           -3.567829           -3.445107
 H            3.534544           -3.903410           -3.197131
 H            5.680096           -3.305364           -2.072534
 H            5.966156            0.610545           -0.657528
 H            7.680766            2.266272           -0.038417
 H            9.390008            3.934592            0.583746
 H           11.555380            4.479453            1.698612
 H           12.863118            2.718477            2.820922
 H           12.045119            0.361984            2.863075
 H           10.326778           -1.307129            2.242729
 H            8.606226           -2.977080            1.616103
 H            6.439930           -3.517033            0.504208
 H            3.632410           -0.429929            0.407863
 H            1.204695           -0.105767            0.162222
 H           -1.207714            0.237824           -0.081940
 H           -3.634015            0.583579           -0.306851
 H           -6.563471            0.880811           -3.282554
 H           -8.666240            2.043849           -2.615015
 H          -10.290278            2.675575           -0.852335
 H          -11.911502            3.301606            0.909584

