94

 C           17.730687           -1.911228            1.302208
 C           16.658334           -1.505003            2.022346
 C           15.389169           -1.196484            1.375716
 C           14.295950           -0.783767            2.101038
 C           13.056226           -0.484995            1.443869
 N           11.982873           -0.077026            2.174039
 C           10.828623            0.196392            1.507744
 C            9.669877            0.632902            2.233752
 C            8.498227            0.916567            1.572368
 C            7.308438            1.366598            2.284229
 C            6.157510            1.642035            1.628480
 C            6.071241            1.495094            0.182483
 C            4.780304            1.789313           -0.478537
 C            4.756835            2.765118           -1.551997
 C            3.601077            3.047940           -2.203368
 C            2.356859            2.388556           -1.847493
 C            1.166832            2.662087           -2.504052
 C           -0.040026            2.006691           -2.137969
 C           -1.267946            2.278493           -2.800070
 C           -2.436904            1.629263           -2.433933
 C           -3.701839            1.888988           -3.098778
 C           -4.836043            1.245350           -2.725570
 C           -4.814587            0.277254           -1.645170
 C           -6.082662           -0.380322           -1.259468
 C           -6.130843           -1.835502           -1.247164
 C           -7.260300           -2.486986           -0.886310
 C           -8.464057           -1.761216           -0.500493
 C           -9.614582           -2.418048           -0.132625
 C          -10.788025           -1.678959            0.237131
 N          -11.921170           -2.341521            0.594662
 C          -13.009893           -1.599487            0.934459
 C          -14.228365           -2.252710            1.317107
 C          -15.336901           -1.515653            1.662456
 C          -16.585105           -2.158157            2.053768
 C          -17.672925           -1.426544            2.392623
 C          -17.625786            0.022600            2.375682
 C          -16.493105            0.673860            2.020253
 C          -15.289843           -0.057984            1.645026
 C          -14.135991            0.596235            1.282502
 C          -12.963605           -0.145025            0.916877
 N          -11.830467            0.517491            0.560081
 C          -10.742225           -0.224773            0.219812
 C           -9.526709            0.431351           -0.164764
 C           -8.418673           -0.303833           -0.516423
 C           -7.178212            0.344733           -0.910665
 C           -3.649471           -0.003172           -0.996777
 C           -2.413331            0.660410           -1.361906
 C           -1.222038            0.387983           -0.706896
 C           -0.017955            1.046276           -1.073944
 C            1.207527            0.773268           -0.409298
 C            2.377779            1.421337           -0.773923
 C            3.635694            1.151160           -0.105525
 C            7.152805            1.082709           -0.530048
 C            8.414989            0.774294            0.123512
 C            9.508222            0.355884           -0.598797
 C           10.745031            0.056028            0.061944
 N           11.817815           -0.352389           -0.668375
 C           12.972060           -0.625032           -0.002219
 C           14.129193           -1.057743           -0.731293
 C           15.304063           -1.336867           -0.073530
 C           16.492308           -1.777915           -0.793162
 C           17.645688           -2.051029           -0.138511
 H           18.683003           -2.143994            1.777778
 H           16.706423           -1.394885            3.105773
 H           14.334155           -0.670889            3.187173
 H            9.758739            0.729271            3.318631
 H            7.384195            1.473309            3.367202
 H            5.266488            1.985159            2.155419
 H            5.692029            3.262000           -1.809265
 H            3.572440            3.777876           -3.012663
 H            1.143027            3.388706           -3.316218
 H           -1.277495            3.011133           -3.607105
 H           -3.706701            2.618862           -3.908602
 H           -5.786769            1.429721           -3.225360
 H           -5.229710           -2.373548           -1.543339
 H           -7.307742           -3.576719           -0.873552
 H           -9.675118           -3.508894           -0.110350
 H          -14.237896           -3.345309            1.322182
 H          -16.604485           -3.248027            2.061459
 H          -18.609927           -1.898817            2.686092
 H          -18.529983            0.561338            2.657594
 H          -16.441808            1.762641            2.002403
 H          -14.072754            1.686874            1.260555
 H           -9.518773            1.524050           -0.166664
 H           -7.159510            1.435439           -0.906098
 H           -3.614885           -0.724671           -0.180385
 H           -1.194968           -0.339814            0.104009
 H            1.213781            0.040047            0.397128
 H            3.634353            0.412764            0.696371
 H            7.106318            0.960339           -1.613023
 H            9.472248            0.239351           -1.684685
 H           14.037464           -1.154328           -1.815820
 H           16.412660           -1.877936           -1.875770
 H           18.538651           -2.381540           -0.668289

