96

 C           -7.397177           -2.253587           -0.882430
 C           -6.238920           -1.618080           -1.207470
 C           -6.093699           -0.179849           -1.057555
 C           -4.795830            0.425814           -1.430797
 C           -4.777331            1.434803           -2.473134
 C           -3.612198            2.021014           -2.845464
 C           -2.354754            1.660823           -2.214025
 C           -1.154960            2.250982           -2.580468
 C            0.065116            1.883285           -1.951164
 C            1.303032            2.477970           -2.316804
 C            2.484517            2.112352           -1.690405
 C            3.760435            2.707975           -2.046941
 C            4.905742            2.341225           -1.419204
 C            4.883898            1.341209           -0.368793
 C            6.158757            0.979134            0.290549
 C            7.197256            0.452422           -0.424155
 C            8.398716            0.090426            0.267315
 C            9.592642           -0.489862           -0.134231
 C           10.144589           -0.945662           -1.397480
 C            9.773407           -0.308043           -2.594439
 C           10.285623           -0.762652           -3.811136
 C           11.171469           -1.844637           -3.842744
 C           11.548620           -2.474794           -2.652158
 C           11.040861           -2.029096           -1.430759
 O           10.424924           -0.672648            0.980774
 C            9.735288           -0.184353            2.100080
 C           10.443417           -0.304315            3.362664
 C           11.356273           -1.354890            3.566341
 C           12.008910           -1.481990            4.793652
 C           11.759854           -0.565883            5.821160
 C           10.862046            0.486859            5.616451
 C           10.206008            0.624301            4.391493
 C            8.492095            0.288817            1.709339
 C            7.379804            0.854198            2.417245
 C            6.256437            1.185889            1.726026
 C            3.710760            0.753596           -0.002615
 C            2.463395            1.111227           -0.648291
 C            1.262809            0.519627           -0.286974
 C            0.046231            0.886551           -0.921188
 C           -1.188751            0.288038           -0.554980
 C           -2.372355            0.654673           -1.176674
 C           -3.640151            0.053112           -0.813350
 C           -7.117803            0.591941           -0.584982
 C           -8.350129           -0.040871           -0.221331
 C           -9.558890            0.434590            0.265199
 C          -10.083571            1.736685            0.635015
 C           -9.210841            2.735822            1.101514
 C           -9.713071            3.993793            1.439976
 C          -11.081080            4.261184            1.324221
 C          -11.952106            3.265767            0.869075
 C          -11.459918            2.005572            0.525801
 O          -10.456548           -0.633127            0.415311
 C           -9.785151           -1.801561            0.025882
 C          -10.573491           -3.018029            0.115754
 C          -11.970387           -2.968796           -0.043588
 C          -12.721282           -4.143140            0.026105
 C          -12.088978           -5.369663            0.255924
 C          -10.701434           -5.419874            0.423838
 C           -9.941262           -4.250204            0.358204
 C           -8.495710           -1.484359           -0.372972
 H           -7.523490           -3.327518           -1.004610
 H           -5.385138           -2.168231           -1.602721
 H           -5.725030            1.694777           -2.944419
 H           -3.584560            2.777506           -3.629466
 H           -1.133901            3.009955           -3.362086
 H            1.310050            3.232063           -3.103385
 H            3.763622            3.459997           -2.835543
 H            5.866656            2.786045           -1.675732
 H            7.133935            0.277893           -1.496656
 H            9.094549            0.543584           -2.570047
 H            9.994272           -0.271657           -4.738557
 H           11.568813           -2.195017           -4.793744
 H           12.237898           -3.317609           -2.677522
 H           11.332650           -2.514684           -0.499425
 H           11.547399           -2.065217            2.761645
 H           12.711869           -2.298745            4.951792
 H           12.265706           -0.671662            6.779404
 H           10.674701            1.204037            6.414547
 H            9.518574            1.453688            4.229323
 H            7.461404            0.993192            3.493511
 H            5.391152            1.618024            2.228612
 H            3.678444           -0.003846            0.780696
 H            1.238099           -0.239659            0.494308
 H           -1.191663           -0.469484            0.228370
 H           -3.638304           -0.700892           -0.026228
 H           -7.028325            1.671484           -0.478118
 H           -8.147166            2.524130            1.208022
 H           -9.035927            4.768160            1.797915
 H          -11.468218            5.242963            1.591058
 H          -13.017368            3.474183            0.780432
 H          -12.134224            1.224837            0.173635
 H          -12.458114           -2.009968           -0.220726
 H          -13.802312           -4.103771           -0.100309
 H          -12.677192           -6.284292            0.306073
 H          -10.211146           -6.374506            0.609399
 H           -8.862567           -4.290167            0.504448

