96

 C           12.670428            3.590319           -1.226842
 C           12.604380            2.230425           -1.205218
 C           11.490133            1.601898           -0.555392
 C           11.118365            0.282003           -0.352099
 C           11.689057           -1.013004           -0.680790
 C           12.362218           -1.192667           -1.901725
 C           12.932875           -2.431061           -2.203158
 C           12.835222           -3.492193           -1.296972
 C           12.155241           -3.317740           -0.086956
 C           11.579641           -2.084380            0.223226
 O            9.914025            0.235376            0.365817
 C            9.530907            1.560751            0.616392
 C            8.277236            1.720751            1.334723
 C            8.161037            2.719002            2.317656
 C            6.948897            2.889282            2.989175
 C            5.852116            2.078454            2.686446
 C            5.965150            1.078438            1.706621
 C            4.796812            0.234503            1.370811
 C            4.945374           -1.208267            1.409466
 C            3.901078           -2.018879            1.105503
 C            2.607393           -1.472389            0.734452
 C            1.528388           -2.284280            0.421335
 C            0.270923           -1.726989            0.062472
 C           -0.843485           -2.547018           -0.261749
 C           -2.063250           -1.989841           -0.614343
 C           -3.215008           -2.807450           -0.953032
 C           -4.402217           -2.244279           -1.291282
 C           -4.549688           -0.802106           -1.330797
 C           -5.858864           -0.226243           -1.713311
 C           -5.938439            0.656896           -2.802620
 C           -7.162600            1.235843           -3.146128
 C           -8.312127            0.940203           -2.412254
 C           -8.240079            0.043602           -1.331107
 C           -9.442429           -0.279500           -0.581337
 C           -9.961584           -1.416586            0.016895
 C           -9.490179           -2.764012            0.162348
 C          -10.270533           -3.665696            0.819635
 C          -11.556946           -3.295759            1.372133
 C          -12.046037           -2.030445            1.255765
 C          -11.262296           -1.046716            0.565591
 C          -11.452391            0.294930            0.273648
 C          -12.487182            1.276568            0.550098
 C          -12.137881            2.610959            0.823984
 C          -13.133724            3.545078            1.114005
 C          -14.478087            3.158412            1.127709
 C          -14.827518            1.833971            0.844341
 C          -13.838917            0.891129            0.554441
 O          -10.345126            0.785018           -0.432965
 C           -7.011933           -0.539859           -0.980490
 C           -3.494857            0.004795           -1.024696
 C           -2.210025           -0.552833           -0.651769
 C           -1.130889            0.257972           -0.334191
 C            0.123644           -0.301622            0.026276
 C            1.236098            0.520397            0.350099
 C            2.457795           -0.035416            0.696999
 C            3.601553            0.791854            1.027196
 C            7.182212            0.894845            1.035758
 C           10.465451            2.428096            0.073789
 C           10.575136            3.857788            0.019866
 C           11.646712            4.410243           -0.612805
 H           13.499853            4.104455           -1.710112
 H           13.367731            1.601597           -1.658043
 H           12.427739           -0.370415           -2.613268
 H           13.453396           -2.571372           -3.149449
 H           13.286325           -4.454340           -1.533924
 H           12.076007           -4.145272            0.616543
 H           11.045740           -1.942262            1.163190
 H            9.016679            3.348624            2.558629
 H            6.857871            3.658988            3.755285
 H            4.909088            2.217028            3.214207
 H            5.916731           -1.612201            1.695052
 H            4.001583           -3.103837            1.131748
 H            1.632305           -3.368789            0.446132
 H           -0.723529           -3.629662           -0.228505
 H           -3.089947           -3.889850           -0.927139
 H           -5.269322           -2.851020           -1.549921
 H           -5.044200            0.887968           -3.380402
 H           -7.220420            1.921533           -3.991203
 H           -9.268181            1.397542           -2.669549
 H           -8.524763           -3.028780           -0.262272
 H           -9.948659           -4.697948            0.950407
 H          -12.122148           -4.070697            1.887631
 H          -13.006710           -1.734744            1.671750
 H          -11.088028            2.905799            0.809223
 H          -12.861954            4.576977            1.332014
 H          -15.252142            3.888986            1.356849
 H          -15.875162            1.536661            0.846764
 H          -14.112465           -0.137334            0.322241
 H           -6.951261           -1.217079           -0.128567
 H           -3.589133            1.090611           -1.045996
 H           -1.233690            1.342559           -0.358212
 H            1.114103            1.602863            0.321411
 H            3.473184            1.873360            0.982371
 H            7.282041            0.121531            0.272366
 H            9.793934            4.458998            0.479345
 H           11.765896            5.490948           -0.677038

