96

 C          -13.948750           -0.603048           -0.809502
 C          -13.314200           -1.625331           -0.172272
 C          -11.902166           -1.524878            0.060624
 C          -10.971794           -2.354061            0.667979
 C          -11.005436           -3.670347            1.281410
 C          -10.168584           -3.969832            2.370867
 C          -10.212500           -5.237437            2.954187
 C          -11.084641           -6.211040            2.456216
 C          -11.913613           -5.916823            1.368649
 C          -11.876745           -4.652358            0.777776
 O           -9.711681           -1.739060            0.651119
 C           -9.859496           -0.505617           -0.002347
 C           -8.632343            0.258550           -0.137473
 C           -7.662541            0.223341            0.880370
 C           -6.475490            0.939737            0.739379
 C           -6.238118            1.695635           -0.421166
 C           -4.956499            2.418153           -0.576854
 C           -4.984647            3.835286           -0.885360
 C           -3.830710            4.535221           -1.022062
 C           -2.537704            3.892739           -0.863506
 C           -1.348983            4.595201           -0.987799
 C           -0.094380            3.949090           -0.820199
 C            1.130739            4.659621           -0.939352
 C            2.348628            4.017168           -0.779536
 C            3.613079            4.720864           -0.906859
 C            4.795926            4.074789           -0.752420
 C            4.829038            2.655848           -0.452077
 C            6.138981            1.986404           -0.293952
 C            7.095823            2.487754            0.603135
 C            8.314208            1.829521            0.774227
 C            8.591763            0.662523            0.041809
 C            9.857214           -0.028443            0.213441
 C           11.172377            0.347411            0.436631
 C           11.826381            1.612561            0.610187
 C           13.172911            1.633598            0.812219
 C           13.952737            0.414413            0.859272
 C           13.376296           -0.807699            0.693120
 C           11.961178           -0.879980            0.468268
 C           11.077758           -1.928713            0.266808
 C           11.185831           -3.376443            0.213800
 C           12.322409           -3.975850           -0.355895
 C           12.431403           -5.367771           -0.384728
 C           11.413354           -6.165878            0.147196
 C           10.277464           -5.570659            0.706174
 C           10.158859           -4.180310            0.739725
 O            9.778646           -1.425955            0.107349
 C            7.636928            0.163261           -0.862409
 C            6.421181            0.823093           -1.030210
 C            3.666117            1.956359           -0.320990
 C            2.379025            2.603444           -0.481446
 C            1.190135            1.900142           -0.359074
 C           -0.064030            2.546781           -0.524154
 C           -1.288595            1.836966           -0.402068
 C           -2.507086            2.479665           -0.562812
 C           -3.765052            1.771817           -0.430007
 C           -7.212597            1.740697           -1.430991
 C           -8.402121            1.024937           -1.293446
 C          -11.183292           -0.331797           -0.373781
 C          -11.897536            0.723776           -1.032518
 C          -13.234859            0.579328           -1.244097
 H          -15.018706           -0.642439           -1.007531
 H          -13.839218           -2.512069            0.175706
 H           -9.488436           -3.208324            2.752193
 H           -9.565683           -5.467824            3.799587
 H          -11.116439           -7.198649            2.913000
 H          -12.587539           -6.677599            0.977427
 H          -12.511340           -4.429141           -0.078969
 H           -7.844927           -0.371734            1.775991
 H           -5.729102            0.916906            1.533400
 H           -5.957952            4.313073           -0.994209
 H           -3.839332            5.600667           -1.251833
 H           -1.362658            5.660360           -1.217163
 H            1.097458            5.726197           -1.160400
 H            3.575868            5.786294           -1.134307
 H            5.747525            4.595432           -0.857177
 H            6.879856            3.386400            1.180509
 H            9.046033            2.210882            1.486315
 H           11.228127            2.519600            0.568612
 H           13.706411            2.573513            0.944862
 H           15.023034            0.511735            1.034488
 H           13.946873           -1.732971            0.731053
 H           13.109395           -3.355085           -0.782068
 H           13.311526           -5.832726           -0.826428
 H           11.503993           -7.250429            0.124758
 H            9.483954           -6.192435            1.118234
 H            9.275620           -3.709598            1.172515
 H            7.855320           -0.744310           -1.427691
 H            5.687812            0.438793           -1.739090
 H            3.671056            0.891733           -0.086093
 H            1.204629            0.833861           -0.133874
 H           -1.256487            0.771142           -0.176857
 H           -3.724718            0.704158           -0.213018
 H           -7.032081            2.323759           -2.333873
 H           -9.147215            1.045546           -2.088785
 H          -11.351304            1.613660           -1.336261
 H          -13.811549            1.355556           -1.744598

