90

 C          -11.147301            5.946055            1.260670
 C          -10.328759            5.606491            2.413415
 C           -9.379425            4.646188            2.346595
 C           -9.153593            3.920917            1.099572
 N           -8.224387            2.976364            1.036486
 C           -8.047689            2.309903           -0.178982
 C           -7.073640            1.304112           -0.271035
 C           -6.897317            0.631102           -1.490556
 N           -5.931810           -0.373453           -1.579310
 C           -5.773225           -0.995910           -2.739747
 C           -6.601083           -0.640515           -3.917017
 N           -7.528620            0.306970           -3.853694
 C           -7.707765            0.974876           -2.641122
 C           -8.681678            1.981502           -2.549483
 C           -8.860998            2.651200           -1.329986
 N           -9.834749            3.649707           -1.239298
 C           -9.986388            4.268180           -0.075564
 C          -10.992076            5.316232            0.074396
 C           -6.388026           -1.356880           -5.169581
 C           -5.451873           -2.329265           -5.243245
 C           -4.634666           -2.679472           -4.098665
 C           -4.766281           -2.055030           -2.898241
 C           -3.891992           -2.413285           -1.758785
 C           -4.492255           -2.886633           -0.526453
 C           -3.713356           -3.249610            0.523358
 C           -2.264847           -3.173156            0.449089
 C           -1.452634           -3.544787            1.509547
 C           -0.036894           -3.461809            1.413760
 C            0.809924           -3.836485            2.492239
 C            2.189457           -3.750704            2.381412
 C            3.077530           -4.115454            3.471551
 C            4.425013           -4.022120            3.342012
 C            5.017728           -3.554205            2.102972
 C            6.492390           -3.484087            2.009139
 C            7.268570           -4.572385            2.255524
 C            8.713658           -4.525538            2.156172
 C            9.362553           -3.389939            1.813487
 C            8.608812           -2.173545            1.532720
 N            9.253456           -1.063635            1.191489
 C            8.501237            0.081706            0.925580
 C            9.157437            1.267947            0.559378
 C            8.397661            2.415887            0.290243
 N            9.051902            3.595618           -0.077216
 C            8.311170            4.667122           -0.327614
 C            8.943832            5.924676           -0.716293
 C            8.188485            7.016390           -0.972545
 C            6.738460            6.977775           -0.871668
 C            6.085936            5.848126           -0.517166
 C            6.833420            4.628226           -0.224650
 N            6.191666            3.520806            0.122263
 C            6.951385            2.378995            0.391226
 C            6.295447            1.195119            0.759121
 C            7.056559            0.045216            1.024728
 N            6.401201           -1.133643            1.381969
 C            7.130783           -2.213275            1.630407
 C            4.224077           -3.199719            1.053522
 C            2.780228           -3.278923            1.150350
 C            1.965558           -2.906227            0.092576
 C            0.551888           -2.985340            0.196728
 C           -0.289179           -2.602271           -0.881440
 C           -1.668363           -2.690608           -0.775644
 C           -2.537188           -2.315055           -1.873146
 H          -11.894100            6.731009            1.391436
 H          -10.512061            6.158309            3.336844
 H           -8.751296            4.371601            3.197440
 H           -6.456340            1.048238            0.597586
 H           -9.293348            2.240182           -3.420653
 H          -11.594207            5.552141           -0.806260
 H           -7.012738           -1.067793           -6.017951
 H           -5.277731           -2.880178           -6.169576
 H           -3.898182           -3.474691           -4.236199
 H           -5.580422           -2.925337           -0.471973
 H           -4.153022           -3.605266            1.454987
 H           -1.894831           -3.906699            2.437273
 H            0.354677           -4.192084            3.416030
 H            2.622329           -4.461502            4.399269
 H            5.094177           -4.281113            4.161643
 H            6.817782           -5.528553            2.530515
 H            9.258773           -5.447817            2.366780
 H           10.450141           -3.328987            1.730629
 H           10.249971            1.294897            0.485114
 H           10.034227            5.928040           -0.785205
 H            8.644036            7.964265           -1.264150
 H            6.196641            7.898493           -1.094098
 H            4.997866            5.791604           -0.433725
 H            5.202725            1.167625            0.839720
 H            4.650262           -2.831805            0.118762
 H            2.404543           -2.541287           -0.836023
 H            0.169697           -2.233684           -1.798566
 H           -2.068936           -1.945754           -2.785193

