94

 C           -8.736772            6.496411           -1.311817
 C           -7.490988            6.607105           -0.575618
 C           -6.817281            5.506276           -0.170219
 C           -7.333467            4.170273           -0.466912
 N           -6.644000            3.109553           -0.053001
 C           -7.133375            1.834013           -0.332386
 C           -6.391363            0.722898            0.109997
 C           -6.842981           -0.578324           -0.141178
 C           -8.081034           -0.769112           -0.860959
 C           -8.821389            0.340773           -1.307715
 C           -8.367789            1.639877           -1.055488
 C           -9.081649            2.806631           -1.487366
 C           -8.592458            4.060273           -1.209298
 C           -9.261720            5.285181           -1.614151
 N           -8.580819           -2.039492           -1.139681
 C           -7.899706           -3.106365           -0.727062
 C           -8.434204           -4.433214           -1.029065
 C           -7.776400           -5.545526           -0.629121
 C           -6.530588           -5.452473            0.107222
 C           -5.989495           -4.248394            0.410125
 C           -6.637935           -3.010652            0.008824
 C           -6.126718           -1.756099            0.281813
 C           -4.836033           -1.604941            0.996306
 C           -4.862772           -1.407943            2.432158
 C           -3.704510           -1.310547            3.131748
 C           -2.415232           -1.397529            2.467893
 C           -1.222448           -1.317134            3.169675
 C            0.028447           -1.404054            2.501039
 C            1.258663           -1.323428            3.208133
 C            2.471990           -1.407207            2.543321
 C            3.740480           -1.323594            3.246698
 C            4.919382           -1.413819            2.581779
 C            4.936613           -1.598642            1.144065
 C            6.250637           -1.716792            0.466971
 C            6.854992           -2.947806            0.300144
 C            6.282477           -4.195914            0.777221
 C            6.914193           -5.377146            0.577537
 C            8.183931           -5.434095           -0.120643
 C            8.773529           -4.310052           -0.588523
 C            8.139261           -3.006241           -0.400095
 N            8.754258           -1.926830           -0.879025
 C            8.158454           -0.678574           -0.709845
 C            8.827563            0.446491           -1.226249
 C            8.274084            1.723649           -1.085556
 C            8.909985            2.904754           -1.594093
 C            8.321771            4.135244           -1.426204
 C            8.907039            5.372775           -1.914528
 C            8.284692            6.559881           -1.720502
 C            7.015547            6.631991           -1.020333
 C            6.416364            5.517836           -0.541350
 C            7.039328            4.206528           -0.719923
 N            6.420696            3.131925           -0.236454
 C            7.010805            1.879668           -0.404242
 C            6.341429            0.753825            0.109852
 C            6.891990           -0.525605           -0.032010
 C            3.775105           -1.672078            0.438379
 C            2.492438           -1.581046            1.108850
 C            1.299436           -1.661570            0.407671
 C            0.050130           -1.575917            1.078283
 C           -1.177973           -1.657362            0.369581
 C           -2.391925           -1.573981            1.033893
 C           -3.653344           -1.672556            0.325656
 H           -9.229765            7.421416           -1.609461
 H           -7.120408            7.610253           -0.362877
 H           -5.878333            5.560401            0.384809
 H           -5.455755            0.893396            0.652865
 H           -9.752404            0.169339           -1.852886
 H          -10.014107            2.672011           -2.037205
 H          -10.196072            5.187594           -2.166289
 H           -9.373314           -4.469832           -1.584682
 H           -8.160648           -6.542308           -0.846400
 H           -6.049558           -6.383172            0.405859
 H           -5.052571           -4.167459            0.965141
 H           -5.835586           -1.342138            2.919524
 H           -3.708022           -1.163159            4.212055
 H           -1.230263           -1.183869            4.251283
 H            1.233598           -1.191557            4.289637
 H            3.710939           -1.183420            4.327547
 H            5.876874           -1.348878            3.098706
 H            5.325868           -4.141278            1.300868
 H            6.490357           -6.315821            0.932403
 H            8.642848           -6.414063           -0.253485
 H            9.727898           -4.320249           -1.118700
 H            9.782360            0.303968           -1.737526
 H            9.863512            2.799361           -2.113322
 H            9.859700            5.304640           -2.439068
 H            8.713918            7.493963           -2.081886
 H            6.565046            7.617128           -0.896257
 H            5.461844            5.542473           -0.011322
 H            5.383541            0.895436            0.621366
 H            3.776458           -1.801615           -0.644462
 H            1.306164           -1.790355           -0.674800
 H           -1.151930           -1.786460           -0.712549
 H           -3.621729           -1.807022           -0.756106

