94

 C           16.910877            2.909448           -4.106843
 C           16.076492            3.275502           -3.104396
 C           14.846817            2.542927           -2.852429
 C           13.962735            2.868232           -1.851311
 C           12.767305            2.098179           -1.661681
 C           11.833448            2.384801           -0.658738
 C           10.678591            1.593389           -0.518729
 N            9.775960            1.912439            0.495728
 C            8.680469            1.170704            0.640174
 C            7.738111            1.506835            1.707058
 C            6.612302            0.780882            1.886213
 C            6.303469           -0.354136            1.026161
 C            5.045445           -1.094393            1.267054
 C            5.119678           -2.524509            1.500610
 C            3.991483           -3.251831            1.694964
 C            2.681446           -2.624729            1.679584
 C            1.517430           -3.352607            1.871636
 C            0.245696           -2.718075            1.860735
 C           -0.955293           -3.449973            2.064574
 C           -2.188458           -2.816499            2.059534
 C           -3.427048           -3.544068            2.273917
 C           -4.625240           -2.908506            2.260561
 C           -4.700089           -1.478599            2.026443
 C           -6.034155           -0.840339            1.986390
 C           -6.295052            0.271953            2.890919
 C           -7.487812            0.907636            2.890104
 C           -8.552443            0.494529            1.976487
 N           -9.710675            1.149859            2.003944
 C          -10.729130            0.757487            1.135817
 C          -11.948604            1.458773            1.175991
 C          -12.998210            1.097076            0.323519
 C          -14.263080            1.774415            0.319977
 C          -15.260339            1.378453           -0.538928
 C          -16.565146            2.015941           -0.599519
 C          -17.510687            1.583113           -1.467492
 C          -17.251378            0.470552           -2.362525
 C          -16.058647           -0.167108           -2.356403
 C          -14.998168            0.254787           -1.442277
 N          -13.838287           -0.397596           -1.466598
 C          -12.821867           -0.000876           -0.598472
 C          -11.603275           -0.701993           -0.639334
 C          -10.553997           -0.339976            0.213132
 C           -9.291902           -1.020288            0.212625
 C           -8.292435           -0.627221            1.071059
 C           -6.992421           -1.267773            1.121352
 C           -3.563414           -0.753018            1.831861
 C           -2.261159           -1.390227            1.838186
 C           -1.096635           -0.665967            1.633015
 C            0.172861           -1.303277            1.641681
 C            1.372134           -0.568670            1.440693
 C            2.607240           -1.198411            1.458616
 C            3.839087           -0.461336            1.255041
 C            7.148070           -0.711054            0.021910
 C            8.372269            0.027170           -0.222100
 C            9.256392           -0.292975           -1.224900
 C           10.449233            0.480898           -1.411174
 C           11.381577            0.194668           -2.414479
 C           12.536892            0.985322           -2.553199
 N           13.437537            0.661226           -3.566656
 C           14.536411            1.398258           -3.712802
 C           15.475684            1.051813           -4.778393
 C           16.603518            1.776151           -4.959532
 H           17.835172            3.451119           -4.304909
 H           16.296541            4.124660           -2.457467
 H           14.149175            3.711668           -1.184780
 H           11.988615            3.222336            0.025516
 H            7.993753            2.361392            2.337868
 H            5.903163            1.017100            2.681489
 H            6.106574           -2.986215            1.520556
 H            4.035292           -4.327190            1.868905
 H            1.564852           -4.429079            2.035947
 H           -0.892498           -4.525846            2.227665
 H           -3.359152           -4.618396            2.446483
 H           -5.558031           -3.445718            2.430236
 H           -5.493568            0.566389            3.570707
 H           -7.709696            1.742937            3.558359
 H          -12.061415            2.286081            1.880665
 H          -14.409775            2.605210            1.011813
 H          -16.748192            2.850055            0.077773
 H          -18.492036            2.053181           -1.521749
 H          -18.052791            0.169190           -3.037874
 H          -15.833417           -1.006872           -3.016576
 H          -11.490466           -1.529223           -1.344078
 H           -9.148093           -1.849919           -0.481325
 H           -6.810581           -2.095530            0.434697
 H           -3.600952            0.322036            1.655012
 H           -1.141787            0.409436            1.461321
 H            1.305870            0.505951            1.270976
 H            3.764511            0.612305            1.081351
 H            6.927678           -1.554112           -0.634122
 H            9.072254           -1.134458           -1.894612
 H           11.226147           -0.641998           -3.099693
 H           15.216769            0.194412           -5.402544
 H           17.314373            1.531704           -5.749568

