96

 C           -6.698971            4.238595            6.049890
 C           -7.976044            3.669572            6.437946
 C           -8.583026            2.729807            5.677474
 C           -7.961526            2.263456            4.438486
 N           -8.589559            1.337399            3.716488
 C           -8.000382            0.887681            2.534400
 C           -8.665711           -0.089292            1.776370
 C           -8.106055           -0.572021            0.583211
 C           -8.777150           -1.569748           -0.194045
 C           -8.234162           -2.049363           -1.364045
 C           -8.911049           -3.068012           -2.155679
 C           -8.368442           -3.536655           -3.304825
 C           -7.096042           -3.031775           -3.777619
 C           -6.424350           -2.086208           -3.077793
 C           -6.954192           -1.545575           -1.833045
 C           -6.281906           -0.585946           -1.095492
 C           -4.961271           -0.085721           -1.550235
 C           -4.926504            1.068918           -2.427378
 C           -3.743570            1.544822           -2.890000
 C           -2.485556            0.919538           -2.519945
 C           -1.267921            1.389787           -2.987172
 C           -0.048089            0.762537           -2.614863
 C            1.207499            1.234957           -3.084320
 C            2.389890            0.614601           -2.711228
 C            3.683401            1.080424           -3.180744
 C            4.830382            0.459255           -2.808694
 C            4.789414           -0.694813           -1.931149
 C            6.068327           -1.356663           -1.574289
 C            6.567114           -2.379261           -2.362827
 C            5.893167           -2.831507           -3.572587
 C            6.394236           -3.842295           -4.322266
 C            7.622412           -4.507659           -3.939643
 C            8.294547           -4.126165           -2.827261
 C            7.803500           -3.043322           -1.985144
 C            8.478289           -2.651526           -0.851574
 C            7.988580           -1.590744           -0.023692
 C            8.681205           -1.198441            1.132253
 C            8.192402           -0.159451            1.940860
 N            8.908298            0.195551            3.084625
 C            8.447005            1.179327            3.854730
 C            9.199634            1.544755            5.054265
 C            8.763564            2.539260            5.861181
 C            7.544860            3.267741            5.562399
 C            6.807998            2.971767            4.464980
 C            7.216163            1.914960            3.554916
 C            6.506293            1.570898            2.428683
 C            6.968426            0.514394            1.577467
 C            6.283060            0.116002            0.422494
 C            6.763954           -0.925989           -0.388038
 C            3.601495           -1.165263           -1.461128
 C            2.351165           -0.531890           -1.832023
 C            1.132545           -1.003493           -1.369310
 C           -0.085132           -0.375012           -1.743594
 C           -1.338596           -0.848783           -1.272155
 C           -2.521455           -0.227035           -1.640671
 C           -3.808271           -0.702084           -1.170836
 C           -6.836934           -0.065461            0.128131
 C           -6.177909            0.914454            0.889671
 C           -6.730155            1.402732            2.080896
 C           -6.085989            2.400439            2.883660
 C           -6.672236            2.838913            4.047628
 C           -6.077947            3.844376            4.912329
 H           -6.263540            4.990559            6.706762
 H           -8.426708            4.027992            7.363897
 H           -9.543196            2.283819            5.943881
 H           -9.626611           -0.469257            2.130572
 H           -9.735139           -1.943506            0.168562
 H           -9.867104           -3.436093           -1.784893
 H           -8.865188           -4.299340           -3.902852
 H           -6.703373           -3.437947           -4.708736
 H           -5.464583           -1.700178           -3.425852
 H           -5.876688            1.529295           -2.698278
 H           -3.702033            2.407659           -3.554779
 H           -1.231320            2.252704           -3.651938
 H            1.226796            2.098984           -3.748366
 H            3.697961            1.944863           -3.844607
 H            5.806438            0.799619           -3.154658
 H            4.967805           -2.324784           -3.852317
 H            5.893472           -4.182866           -5.227439
 H            7.979346           -5.317509           -4.574372
 H            9.219767           -4.615156           -2.524176
 H            9.404393           -3.145888           -0.556878
 H            9.609141           -1.698697            1.418297
 H           10.111765            0.979073            5.253661
 H            9.313152            2.823546            6.758995
 H            7.249199            4.056865            6.252621
 H            5.890768            3.510983            4.229407
 H            5.584359            2.089661            2.162048
 H            5.355911            0.626145            0.150674
 H            3.558431           -2.031300           -0.799785
 H            1.094263           -1.869850           -0.708538
 H           -1.356866           -1.716319           -0.612066
 H           -3.821928           -1.569856           -0.510532
 H           -5.215474            1.304044            0.549598
 H           -5.126934            2.798910            2.549624
 H           -5.118805            4.263781            4.609536

