96

 C          -15.625986            4.841478           -1.009212
 C          -15.313125            3.530740           -1.147803
 C          -13.989439            3.033816           -0.798058
 C          -13.653012            1.705212           -0.927686
 C          -12.349614            1.229626           -0.569548
 C          -12.004185           -0.126027           -0.693900
 C          -10.727498           -0.580280           -0.336866
 C          -10.328560           -1.952515           -0.448420
 C           -9.057239           -2.336733           -0.091604
 C           -8.574221           -3.703801           -0.188426
 C           -7.304694           -4.024421            0.156291
 C           -6.380532           -3.006603            0.636918
 C           -4.994361           -3.407182            0.965084
 C           -4.782673           -4.483415            1.913612
 C           -3.526079           -4.862213            2.257121
 C           -2.360851           -4.206237            1.689688
 C           -1.069853           -4.567935            2.041724
 C            0.055212           -3.902993            1.483147
 C            1.383164           -4.255117            1.846071
 C            2.472186           -3.589151            1.305608
 C            3.837171           -3.930467            1.665574
 C            4.891159           -3.260038            1.136889
 C            4.680032           -2.180805            0.190592
 C            5.864155           -1.476251           -0.351036
 C            6.009910           -1.404656           -1.799044
 C            7.060664           -0.764227           -2.362460
 C            8.078517           -0.128733           -1.543424
 C            9.161103            0.539103           -2.065191
 C           10.131618            1.133963           -1.194450
 C           11.254432            1.825525           -1.667475
 C           12.185494            2.385278           -0.777327
 C           13.339067            3.091081           -1.250279
 C           14.252714            3.633988           -0.375203
 C           15.430867            4.352594           -0.840770
 C           16.319200            4.879071            0.036119
 C           16.119376            4.740666            1.464787
 C           15.040544            4.082520            1.952498
 C           14.051624            3.495369            1.058756
 C           12.948797            2.823191            1.534993
 C           11.985005            2.249222            0.642689
 C           10.860570            1.562302            1.123034
 C            9.930631            1.003272            0.229625
 N            8.826661            0.329538            0.751274
 C            7.942613           -0.208632           -0.087270
 C            6.787447           -0.907670            0.466919
 C            3.416961           -1.831169           -0.182774
 C            2.260782           -2.520150            0.356421
 C            0.969975           -2.175078           -0.014353
 C           -0.153816           -2.848347            0.535032
 C           -1.481102           -2.493065            0.174911
 C           -2.570928           -3.141662            0.735393
 C           -3.930820           -2.770912            0.397515
 C           -6.779471           -1.714361            0.766295
 C           -8.134255           -1.313821            0.404604
 N           -8.472543           -0.031502            0.528153
 C           -9.758282            0.365432            0.164743
 C          -10.100435            1.722775            0.291177
 C          -11.379547            2.169664           -0.068707
 C          -11.749429            3.549258            0.051610
 C          -13.008383            3.983311           -0.295699
 C          -13.400415            5.380904           -0.174559
 C          -14.647207            5.788027           -0.512764
 H          -16.613344            5.223583           -1.264046
 H          -16.037632            2.808423           -1.521754
 H          -14.377300            0.984307           -1.306227
 H          -12.740212           -0.834847           -1.073525
 H          -11.052556           -2.676868           -0.823106
 H           -9.271708           -4.458210           -0.553028
 H           -6.932091           -5.045861            0.076735
 H           -5.660772           -4.963749            2.344303
 H           -3.353582           -5.667239            2.971382
 H           -0.900157           -5.369851            2.759956
 H            1.533329           -5.061032            2.564197
 H            3.983146           -4.744436            2.375789
 H            5.918443           -3.512279            1.400925
 H            5.245081           -1.890486           -2.405432
 H            7.177499           -0.706422           -3.444848
 H            9.303509            0.628195           -3.142779
 H           11.408679            1.929847           -2.741617
 H           13.477211            3.188268           -2.326950
 H           15.567376            4.448543           -1.917239
 H           17.203512            5.418301           -0.300234
 H           16.864290            5.183478            2.124424
 H           14.876544            3.970647            3.023726
 H           12.784456            2.712062            2.607202
 H           10.693033            1.452170            2.196750
 H            6.705057           -0.937978            1.556220
 H            3.238538           -1.018194           -0.886842
 H            0.800979           -1.373923           -0.733803
 H           -1.632007           -1.693323           -0.550245
 H           -4.071866           -1.965228           -0.324079
 H           -6.115944           -0.930219            1.139863
 H           -9.353513            2.421892            0.674070
 H          -11.003091            4.248998            0.429088
 H          -12.652667            6.080324            0.197943
 H          -14.951335            6.829953           -0.423880

