96

 C            7.395497           -4.504483           -4.260087
 C            6.149647           -3.822161           -4.557690
 C            5.702179           -2.812491           -3.776879
 C            6.469390           -2.385880           -2.606682
 N            5.991807           -1.395868           -1.857563
 C            6.711417           -0.978210           -0.738586
 C            7.966775           -1.596194           -0.385044
 C            8.449850           -2.661918           -1.214993
 C            7.730056           -3.070717           -2.311645
 C            8.149859           -4.146934           -3.193249
 C            8.662948           -1.148966            0.743409
 C            8.156041           -0.107958            1.538356
 C            8.862901            0.345390            2.699244
 C            8.367439            1.358498            3.489130
 C            9.067751            1.825203            4.677683
 C            8.557635            2.821109            5.441691
 C            7.300273            3.451877            5.093788
 C            6.608915            3.057762            3.997402
 C            7.105324            1.989485            3.140934
 C            6.412732            1.569518            2.027575
 C            6.904149            0.513246            1.192789
 C            6.192265            0.068534            0.057809
 C            4.891456            0.681367           -0.303522
 C            4.901895            1.915210           -1.066192
 C            3.736594            2.507276           -1.429229
 C            2.454292            1.927498           -1.068769
 C            1.253645            2.513402           -1.439285
 C            0.009642            1.924397           -1.085138
 C           -1.229169            2.511737           -1.460019
 C           -2.434987            1.925299           -1.107960
 C           -3.711833            2.513579           -1.474050
 C           -4.882495            1.927544           -1.118710
 C           -4.883201            0.690040           -0.361843
 C           -6.190499            0.089161           -0.003368
 C           -6.852813           -0.769284           -0.907492
 C           -6.304145           -1.079631           -2.194640
 C           -6.949704           -1.925771           -3.068012
 C           -6.396093           -2.248656           -4.375859
 C           -7.042236           -3.089188           -5.219234
 C           -8.306499           -3.688251           -4.841615
 C           -8.868755           -3.419272           -3.638585
 C           -8.219015           -2.524696           -2.690695
 C           -8.768736           -2.237573           -1.461368
 C           -8.112128           -1.360650           -0.537938
 C           -8.675705           -1.077113            0.716892
 C           -8.029810           -0.224432            1.619030
 C           -8.573485            0.083372            2.910375
 C           -7.902317            0.923906            3.765404
 C           -8.385587            1.276129            5.089888
 C           -7.677470            2.110878            5.887753
 C           -6.419484            2.682175            5.443424
 C           -5.914624            2.395396            4.221742
 C           -6.629746            1.494708            3.317914
 N           -6.096975            1.229724            2.128179
 C           -6.766967            0.372768            1.255900
 C           -3.713019            0.101533            0.008368
 C           -2.439044            0.694894           -0.349158
 C           -1.237312            0.112232            0.022089
 C            0.004052            0.705471           -0.331123
 C            1.239968            0.115670            0.045644
 C            2.447069            0.698380           -0.308103
 C            3.715466            0.099522            0.059328
 H            7.696618           -5.311405           -4.926882
 H            5.590612           -4.153910           -5.432881
 H            4.769880           -2.278675           -3.974153
 H            9.395899           -3.136201           -0.952532
 H            9.087876           -4.649747           -2.960561
 H            9.610258           -1.617072            1.011118
 H            9.808199           -0.137456            2.945685
 H           10.011673            1.341921            4.926091
 H            9.071242            3.176616            6.333975
 H            6.937319            4.247405            5.743003
 H            5.662328            3.522559            3.721970
 H            5.462478            2.038025            1.759203
 H            5.869342            2.332111           -1.343698
 H            3.728006            3.430341           -2.007802
 H            1.249615            3.438744           -2.014259
 H           -1.216793            3.438914           -2.031926
 H           -3.694717            3.445107           -2.038663
 H           -5.846267            2.366533           -1.373945
 H           -5.349007           -0.625440           -2.470433
 H           -5.445037           -1.789396           -4.645283
 H           -6.636933           -3.339467           -6.198578
 H           -8.782157           -4.357155           -5.557494
 H           -9.818817           -3.861120           -3.341364
 H           -9.720350           -2.677152           -1.163735
 H           -9.628446           -1.529317            0.992491
 H           -9.526008           -0.365622            3.193044
 H           -9.332525            0.843157            5.410397
 H           -8.026467            2.380573            6.883740
 H           -5.899351            3.350078            6.130468
 H           -4.971941            2.809885            3.857632
 H           -3.701784           -0.818921            0.591480
 H           -1.231212           -0.814049            0.596014
 H            1.225677           -0.811514            0.617980
 H            3.695711           -0.836138            0.617584

