86

 C          -15.859365           -4.923573            1.663691
 C          -14.682416           -4.694651            2.271518
 C          -13.796614           -3.785252            1.537285
 C          -12.548286           -3.355188            1.881858
 C          -11.839013           -2.447373            1.011959
 C          -12.453151           -2.005556           -0.210376
 C          -11.760098           -1.121304           -1.050079
 C          -10.478905           -0.658624           -0.717415
 C           -9.766108            0.254879           -1.583123
 C           -8.530791            0.669848           -1.211682
 S           -7.450992            1.759150           -2.074668
 C           -6.189270            1.630102           -0.829860
 C           -4.935466            2.340376           -1.034432
 C           -4.958279            3.741821           -1.410555
 C           -3.799863            4.421777           -1.601626
 C           -2.509053            3.776489           -1.436736
 C           -1.315682            4.458089           -1.621094
 C           -0.064523            3.807373           -1.443576
 C            1.167390            4.495723           -1.614764
 C            2.379760            3.850649           -1.424118
 C            3.651199            4.535011           -1.582486
 C            4.828666            3.890630           -1.385296
 C            4.846634            2.489055           -1.008937
 C            6.121508            1.819626           -0.797313
 C            6.521105            1.031304            0.222406
 C            7.872703            0.494454            0.067579
 C            8.554782           -0.332462            0.912621
 C            9.891042           -0.758689            0.572575
 C           10.615624           -1.607227            1.422568
 C           11.916967           -2.020522            1.100876
 C           12.517492           -1.567619           -0.124252
 C           11.792004           -0.722590           -0.976701
 C           10.491989           -0.308279           -0.653441
 C            9.746215            0.565763           -1.531868
 C            8.495261            0.937774           -1.167499
 S            7.377752            1.976594           -2.044390
 C           13.859996           -1.989493           -0.456037
 C           14.515636           -2.803476            0.406509
 S           16.141545           -3.457106            0.255621
 C           16.033066           -4.321855            1.795310
 C           14.844526           -4.136145            2.395229
 C           13.925336           -3.271727            1.647895
 C           12.658792           -2.890023            1.982715
 C            3.675801            1.804480           -0.850489
 C            2.397328            2.454492           -1.052004
 C            1.203166            1.768666           -0.891754
 C           -0.044381            2.421608           -1.076381
 C           -1.272289            1.731122           -0.898270
 C           -2.486011            2.380460           -1.064801
 C           -3.744953            1.691767           -0.870127
 C           -6.561890            0.817413            0.180868
 C           -7.893425            0.234845            0.018769
 C           -8.545124           -0.627046            0.852737
 C           -9.863472           -1.099920            0.504749
 C          -10.556153           -1.986072            1.342742
 C          -13.775712           -2.478827           -0.552588
 C          -14.400397           -3.328970            0.297933
 S          -15.996786           -4.048368            0.132237
 H          -16.678961           -5.544410            1.987640
 H          -14.367006           -5.117315            3.217505
 H          -12.066751           -3.678852            2.802723
 H          -12.226623           -0.787154           -1.977232
 H          -10.242091            0.581191           -2.506559
 H           -5.927451            4.229405           -1.524645
 H           -3.805105            5.475221           -1.882742
 H           -1.323370            5.510375           -1.905141
 H            1.144571            5.547735           -1.899012
 H            3.625745            5.588095           -1.863798
 H            5.783182            4.407415           -1.494579
 H            5.930988            0.796513            1.099524
 H            8.115553           -0.683046            1.844735
 H           10.159177           -1.951266            2.351263
 H           12.247720           -0.380902           -1.906529
 H           10.211105            0.898469           -2.458721
 H           14.304235           -1.641227           -1.387073
 H           16.876082           -4.904825            2.129436
 H           14.542288           -4.562073            3.344045
 H           12.186702           -3.223930            2.904787
 H            3.671077            0.749705           -0.573523
 H            1.207763            0.713193           -0.619232
 H           -1.246408            0.675956           -0.625765
 H           -3.709380            0.637454           -0.593591
 H           -5.964374            0.593412            1.055893
 H           -8.094356           -0.971882            1.781520
 H          -10.089117           -2.322257            2.269088
 H          -14.230413           -2.138901           -1.481630

