80

 C            8.528525            1.321523           -1.899157
 C            7.284383            1.125357           -2.388809
 C            6.341719            0.255335           -1.696139
 C            4.981668            0.104872           -2.258324
 C            4.838044           -0.365408           -3.622972
 C            3.607362           -0.544146           -4.164719
 C            2.401959           -0.267424           -3.402481
 C            1.136011           -0.458431           -3.933603
 C           -0.029421           -0.185579           -3.166941
 C           -1.332993           -0.385692           -3.695634
 C           -2.461613           -0.121385           -2.935072
 C           -3.802860           -0.314956           -3.457334
 C           -4.896237           -0.060747           -2.695802
 C           -4.752353            0.413104           -1.332092
 C           -5.976691            0.664595           -0.539801
 C           -6.905081           -0.303148           -0.329888
 C           -8.100361           -0.046265            0.464497
 C           -9.044146           -1.011747            0.685169
 C          -10.226152           -0.751095            1.475977
 C          -11.179686           -1.731308            1.689540
 C          -12.332906           -1.450352            2.469201
 C          -13.391908           -2.298887            2.787762
 S          -14.517951           -1.478381            3.746303
 C          -13.680530           -0.009776            3.781096
 C          -12.501138           -0.119538            3.046337
 C          -11.510184            0.870928            2.815927
 C          -10.396404            0.576552            2.049341
 C           -9.377997            1.570674            1.794455
 C           -8.275851            1.289300            1.036113
 C           -7.246668            2.289698            0.768761
 C           -6.157983            1.997556            0.024112
 C           -3.513431            0.618126           -0.802978
 C           -2.317224            0.363071           -1.581250
 C           -1.050256            0.569683           -1.056831
 C            0.113104            0.301711           -1.826376
 C            1.415574            0.498772           -1.294807
 C            2.544660            0.218754           -2.049018
 C            3.879165            0.390847           -1.510165
 C            6.706593           -0.385606           -0.556160
 C            8.034334           -0.212275            0.018685
 C            8.408535           -0.842451            1.173699
 C            9.717817           -0.646766            1.753836
 C           10.083721           -1.279019            2.929347
 C           11.372356           -1.064555            3.485449
 C           11.914355           -1.605786            4.650073
 S           13.490106           -1.033269            4.870171
 C           13.523642           -0.074049            3.478012
 C           12.307490           -0.173564            2.804176
 C           11.911677            0.463700            1.598463
 C           10.650186            0.241844            1.074555
 C           10.222110            0.881309           -0.149830
 C            8.973655            0.674910           -0.667772
 H            9.241884            1.971959           -2.405219
 H            6.941828            1.611025           -3.302221
 H            5.747074           -0.576547           -4.185753
 H            3.486014           -0.902456           -5.186788
 H            1.017277           -0.825239           -4.952888
 H           -1.432813           -0.754591           -4.716156
 H           -3.897877           -0.669908           -4.483305
 H           -5.906386           -0.196127           -3.081774
 H           -6.783467           -1.305782           -0.740020
 H           -8.930327           -2.012180            0.267879
 H          -11.065951           -2.728019            1.267897
 H          -13.503181           -3.324412            2.484362
 H          -14.031209            0.863105            4.301759
 H          -11.646903            1.858726            3.251918
 H           -9.520969            2.559927            2.229344
 H           -7.394684            3.282193            1.194171
 H           -5.387864            2.739758           -0.185423
 H           -3.386678            0.968517            0.221522
 H           -0.931420            0.941350           -0.039317
 H            1.516141            0.873968           -0.276642
 H            3.969436            0.756416           -0.487109
 H            6.018186           -1.049915           -0.033217
 H            7.723014           -1.511151            1.694162
 H            9.396756           -1.946217            3.446226
 H           11.427436           -2.286345            5.325357
 H           14.373162            0.514571            3.181806
 H           12.617592            1.126336            1.101448
 H           10.933105            1.540523           -0.647925

