80

 C            7.756533            3.775648            1.565060
 C            8.424523            3.231749            0.523074
 C            7.941640            2.020807           -0.133203
 C            8.613821            1.460920           -1.184658
 C            8.147573            0.255152           -1.830088
 C            8.834310           -0.304063           -2.893490
 C            8.356980           -1.492645           -3.505838
 C            8.906235           -2.195500           -4.576926
 S            7.954538           -3.549032           -4.924594
 C            6.808899           -3.273882           -3.712026
 C            7.137148           -2.119229           -3.003020
 C            6.448033           -1.527135           -1.911643
 C            6.929785           -0.366506           -1.331347
 C            6.243446            0.258896           -0.223330
 C            6.709875            1.403538            0.361701
 C            6.023393            2.055424            1.482703
 C            4.754429            1.470396            1.980320
 C            4.814939            0.560591            3.108037
 C            3.679327            0.025844            3.622382
 C            2.377478            0.344522            3.061856
 C            1.205097           -0.176615            3.587047
 C           -0.058846            0.144856            3.022155
 C           -1.268557           -0.381168            3.551229
 C           -2.494942           -0.059195            2.990707
 C           -3.742392           -0.588007            3.514935
 C           -4.935045           -0.247416            2.965657
 C           -4.992199            0.659599            1.835549
 C           -6.324883            1.026727            1.297540
 C           -7.027373            2.048710            1.849091
 C           -8.320820            2.435851            1.320537
 C           -8.856377            1.791532            0.259563
 C           -8.159146            0.678905           -0.377879
 C           -8.696001            0.018110           -1.448280
 C           -8.016865           -1.092796           -2.075009
 C           -8.567724           -1.755250           -3.157821
 C           -7.881728           -2.847795           -3.750894
 C           -8.273161           -3.629262           -4.836528
 S           -7.100921           -4.807196           -5.149164
 C           -6.055869           -4.349619           -3.901035
 C           -6.592277           -3.266195           -3.206992
 C           -6.045483           -2.570870           -2.095889
 C           -6.729937           -1.506490           -1.535422
 C           -6.191689           -0.778594           -0.408165
 C           -6.858621            0.272470            0.157756
 C           -3.848670            1.165393            1.297198
 C           -2.551224            0.828559            1.851473
 C           -1.377354            1.342302            1.321873
 C           -0.114771            1.019459            1.887914
 C            1.093226            1.548159            1.358833
 C            2.319730            1.233662            1.923784
 C            3.559333            1.782727            1.408133
 C            6.529194            3.178091            2.053709
 H            8.111018            4.675796            2.065815
 H            9.342811            3.674619            0.138792
 H            9.529268            1.912582           -1.566721
 H            9.744912            0.152682           -3.276026
 H            9.798564           -1.939330           -5.119328
 H            5.961816           -3.913333           -3.538776
 H            5.539985           -2.002925           -1.544622
 H            5.328303           -0.219017            0.133478
 H            5.796881            0.325585            3.518218
 H            3.711110           -0.657753            4.470656
 H            1.239406           -0.844257            4.447573
 H           -1.217515           -1.046711            4.412553
 H           -3.685924           -1.267657            4.365092
 H           -5.876495           -0.640778            3.348495
 H           -6.639483            2.612293            2.697411
 H           -8.835198            3.263443            1.807527
 H           -9.822923            2.076871           -0.154418
 H           -9.661067            0.312947           -1.860210
 H           -9.528602           -1.454317           -3.570444
 H           -9.177779           -3.522769           -5.407794
 H           -5.121299           -4.841596           -3.698424
 H           -5.083968           -2.891767           -1.698154
 H           -5.222277           -1.100115           -0.020723
 H           -3.877563            1.838952            0.440546
 H           -1.410161            2.007326            0.458918
 H            1.041144            2.212266            0.496121
 H            3.501592            2.455828            0.552575
 H            6.026937            3.666998            2.888194

