78

 C           12.271685            2.442365           -1.688573
 C           11.352831            3.176629           -0.935227
 C           10.139104            2.594606           -0.536853
 C            9.856131            1.250846           -0.907990
 C           10.798084            0.511829           -1.675676
 C           12.002917            1.122731           -2.058498
 C           10.477810           -0.858565           -2.038876
 C            9.311064           -1.434180           -1.661550
 C            8.327753           -0.706791           -0.875288
 C            7.115585           -1.290681           -0.478203
 C            6.190207           -0.555128            0.274638
 C            4.898683           -1.164043            0.668542
 C            4.907069           -2.390556            1.442834
 C            3.742565           -2.971240            1.827246
 C            2.458681           -2.389362            1.476054
 C            1.258895           -2.968048            1.860486
 C            0.014317           -2.379886            1.506425
 C           -1.223086           -2.961856            1.894071
 C           -2.429991           -2.377351            1.541936
 C           -3.706703           -2.954243            1.925891
 C           -4.878329           -2.368149            1.572535
 C           -4.884647           -1.144424            0.793963
 C           -6.183658           -0.538633            0.420245
 C           -6.475877           -0.321768           -0.934034
 C           -7.688037            0.273123           -1.311016
 C           -8.620569            0.656322           -0.307903
 C           -8.318733            0.431467            1.063817
 C           -7.099677           -0.167895            1.413965
 C           -9.292569            0.836297            2.064799
 C          -10.466223            1.414271            1.713440
 C          -10.803555            1.656498            0.320564
 C          -12.015746            2.253837           -0.060167
 C          -12.300961            2.468908           -1.410363
 C          -11.391822            2.096469           -2.403100
 C          -10.171138            1.496770           -2.055143
 C           -9.871234            1.273061           -0.682734
 C           -9.197233            1.093947           -3.056071
 C           -8.023753            0.515961           -2.704676
 C           -3.711082           -0.567757            0.410261
 C           -2.436074           -1.157214            0.767561
 C           -1.235537           -0.579850            0.383130
 C            0.006950           -1.169210            0.738725
 C            1.242348           -0.585362            0.350638
 C            2.449921           -1.168578            0.702722
 C            3.717810           -0.582429            0.315857
 C            6.466296            0.769047            0.644948
 C            7.670875            1.375668            0.262435
 C            8.612841            0.636733           -0.505213
 C            7.989200            2.747251            0.625051
 C            9.155592            3.322926            0.247365
 H           13.210394            2.905470           -1.991580
 H           11.580264            4.204408           -0.656266
 H           12.731516            0.566451           -2.646160
 H           11.213800           -1.405994           -2.627775
 H            9.072996           -2.461516           -1.936401
 H            6.884764           -2.316172           -0.764416
 H            5.873993           -2.817853            1.708137
 H            3.734128           -3.890882            2.412075
 H            1.254976           -3.888755            2.443747
 H           -1.208043           -3.882680            2.476973
 H           -3.687012           -3.876175            2.506819
 H           -5.840182           -2.798129            1.851500
 H           -5.756232           -0.622002           -1.695123
 H           -6.856005           -0.336553            2.462330
 H           -9.041578            0.656878            3.110038
 H          -11.195444            1.716133            2.465316
 H          -12.737478            2.551023            0.699096
 H          -13.245385            2.933118           -1.693232
 H          -11.632090            2.272051           -3.450584
 H           -9.447937            1.274667           -4.101358
 H           -7.294082            0.215011           -3.456186
 H           -3.699034            0.354841           -0.170520
 H           -1.231618            0.340039           -0.201249
 H            1.227164            0.335241           -0.232425
 H            3.694321            0.335846           -0.271420
 H            5.739558            1.325452            1.236238
 H            7.252196            3.294567            1.212474
 H            9.393368            4.351048            0.520563

