78

 C           10.726996           -0.203878           -3.328776
 C           11.006052           -1.340517           -2.567241
 C           10.146073           -1.723579           -1.525404
 C            8.989185           -0.942234           -1.252240
 C            8.713882            0.213293           -2.034703
 C            9.592745            0.569221           -3.070097
 C            7.522740            0.989333           -1.733248
 C            6.682392            0.630788           -0.733676
 C            6.932440           -0.544758            0.084008
 C            6.068866           -0.940091            1.125184
 C            4.829541           -0.185020            1.427009
 C            4.875072            0.835483            2.456511
 C            3.758357            1.532357            2.785110
 C            2.491345            1.280400            2.120452
 C            1.338538            1.979492            2.445062
 C            0.109976            1.717851            1.779866
 C           -1.079724            2.429096            2.095992
 C           -2.270739            2.159311            1.439394
 C           -3.499047            2.872348            1.746004
 C           -4.653574            2.598181            1.088529
 C           -4.688385            1.581664            0.054582
 C           -5.963815            1.345071           -0.662568
 C           -6.935132            0.456680           -0.159488
 C           -6.760126           -0.265578            1.089801
 C           -7.704083           -1.119628            1.551630
 C           -8.936749           -1.352995            0.818179
 C           -9.924933           -2.235343            1.283053
 C          -11.095534           -2.433518            0.547306
 C          -11.303315           -1.762734           -0.659600
 C          -10.333811           -0.874338           -1.152077
 C           -9.139229           -0.663029           -0.409127
 C           -8.132080            0.249330           -0.901501
 C           -8.340921            0.933370           -2.130461
 C           -9.569739            0.694148           -2.867611
 C          -10.513051           -0.160957           -2.405347
 C           -7.356261            1.817143           -2.600878
 C           -6.184144            2.017151           -1.874070
 C           -3.565905            0.879128           -0.260606
 C           -2.309962            1.139302            0.416092
 C           -1.156910            0.439037            0.098564
 C            0.069580            0.709421            0.762097
 C            1.256644            0.001058            0.436391
 C            2.449411            0.267516            1.090396
 C            3.667438           -0.450960            0.769784
 C            6.363199           -2.078219            1.890570
 C            7.500938           -2.840224            1.631756
 C            8.376071           -2.479461            0.594450
 C            8.093695           -1.323265           -0.183571
 C            9.563834           -3.258478            0.289234
 C           10.401280           -2.901729           -0.713848
 H           11.401856            0.082682           -4.135217
 H           11.893619           -1.933185           -2.781649
 H            9.389141            1.451583           -3.674363
 H            7.328836            1.871921           -2.342831
 H            5.787635            1.215781           -0.509700
 H            5.830629            1.017892            2.947900
 H            3.779267            2.301571            3.557085
 H            1.361708            2.744766            3.220753
 H           -1.041226            3.196712            2.868768
 H           -3.459015            3.635768            2.522966
 H           -5.580534            3.126423            1.311411
 H           -5.833979           -0.093181            1.642596
 H           -7.565464           -1.659503            2.488407
 H           -9.778047           -2.767783            2.221205
 H          -11.855863           -3.120267            0.918967
 H          -12.220615           -1.928387           -1.221811
 H           -9.702524            1.228117           -3.808394
 H          -11.434404           -0.340436           -2.959106
 H           -7.508580            2.347434           -3.540149
 H           -5.424451            2.703490           -2.250521
 H           -3.579310            0.105582           -1.028653
 H           -1.177383           -0.332922           -0.670488
 H            1.215332           -0.761074           -0.341600
 H            3.620183           -1.209918           -0.011458
 H            5.687512           -2.370503            2.695440
 H            7.711128           -3.722364            2.235348
 H            9.753915           -4.142792            0.897261
 H           11.291309           -3.487449           -0.943235

