110

 C           -7.473017           -5.905451            4.907854
 C           -6.298707           -6.221017            4.115363
 C           -5.814836           -5.336030            3.213187
 C           -6.454688           -4.041058            3.010419
 C           -5.972404           -3.128921            2.107594
 C           -6.607095           -1.850458            1.911446
 C           -7.786685           -1.545402            2.690537
 C           -8.270806           -2.521906            3.633025
 C           -7.639638           -3.726909            3.802027
 C           -8.111933           -4.721910            4.758397
 C           -8.426498           -0.322639            2.524757
 C           -7.947532            0.638759            1.601163
 C           -8.599536            1.887027            1.436053
 C           -8.131509            2.832327            0.530110
 C           -8.780516            4.106593            0.357655
 C           -8.310779            5.030898           -0.539733
 C           -8.955830            6.326860           -0.721057
 C           -8.478763            7.226804           -1.611932
 C           -7.308340            6.926810           -2.416052
 C           -6.668581            5.740947           -2.290818
 C           -7.131581            4.729860           -1.346754
 C           -6.493248            3.524772           -1.202704
 C           -6.960005            2.536264           -0.264448
 C           -6.313063            1.315275           -0.105791
 C           -6.776213            0.345594            0.819364
 C           -6.119459           -0.906460            1.001859
 C           -4.893985           -1.201290            0.219559
 C           -5.043544           -1.845290           -1.071639
 C           -3.952322           -2.152814           -1.816001
 C           -2.611890           -1.846296           -1.347060
 C           -1.486282           -2.157735           -2.093820
 C           -0.182949           -1.849587           -1.618255
 C            0.978635           -2.162744           -2.374473
 C            2.244759           -1.856235           -1.900008
 C            3.443964           -2.167038           -2.658606
 C            4.675952           -1.863558           -2.179215
 C            4.823181           -1.219538           -0.887700
 C            6.194338           -0.926670           -0.402972
 C            6.779073            0.339926           -0.696649
 C            6.104402            1.325545           -1.460800
 C            6.684843            2.560676           -1.729288
 C            6.002773            3.565521           -2.504074
 C            6.577631            4.784786           -2.755902
 C            5.897492            5.812468           -3.536400
 C            6.477720            7.012516           -3.769806
 C            7.798863            7.311801           -3.248559
 C            8.479320            6.396435           -2.520374
 C            7.908572            5.084494           -2.235023
 C            8.583643            4.144406           -1.499574
 C            8.005922            2.855014           -1.219782
 C            8.680999            1.893728           -0.475657
 C            8.097385            0.631198           -0.200251
 C            8.786652           -0.346424            0.558672
 C            8.214200           -1.582913            0.833137
 C            8.912566           -2.575131            1.610438
 C            8.348723           -3.793395            1.887418
 C            9.038798           -4.804269            2.681027
 C            8.463274           -6.001140            2.940821
 C            7.140253           -6.314924            2.433139
 C            6.452178           -5.415320            1.692582
 C            7.015568           -4.105931            1.383095
 C            6.328539           -3.178965            0.642624
 C            6.888817           -1.886381            0.340474
 C            3.728372           -0.903783           -0.142391
 C            2.392266           -1.209363           -0.615952
 C            1.265961           -0.899949            0.131304
 C           -0.036614           -1.207491           -0.345072
 C           -1.197745           -0.894325            0.411560
 C           -2.464257           -1.198850           -0.063207
 C           -3.658525           -0.888597            0.698779
 H           -7.815582           -6.654034            5.620821
 H           -5.828443           -7.189944            4.275180
 H           -4.934608           -5.558067            2.610241
 H           -5.085900           -3.356059            1.511469
 H           -9.158651           -2.270726            4.212800
 H           -8.995333           -4.471461            5.344377
 H           -9.313437           -0.089143            3.113030
 H           -9.483411            2.099918            2.036795
 H           -9.660157            4.315041            0.965873
 H           -9.833413            6.537830           -0.110906
 H           -8.952486            8.196992           -1.754131
 H           -6.969860            7.688169           -3.117083
 H           -5.789115            5.501483           -2.887670
 H           -5.611516            3.284479           -1.797258
 H           -5.426782            1.091553           -0.703705
 H           -6.054756           -2.068708           -1.412331
 H           -4.047755           -2.638919           -2.786718
 H           -1.587729           -2.646865           -3.062414
 H            0.857838           -2.651616           -3.340970
 H            3.316783           -2.652642           -3.625920
 H            5.583532           -2.089914           -2.739193
 H            5.105792            1.103124           -1.843321
 H            5.009627            3.326131           -2.884871
 H            4.906456            5.573583           -3.920829
 H            5.977773            7.786286           -4.350287
 H            8.215489            8.294188           -3.465912
 H            9.471622            6.606711           -2.122730
 H            9.578058            4.351745           -1.105421
 H            9.678139            2.105184           -0.090304
 H            9.783656           -0.114252            0.932011
 H            9.908057           -2.324668            1.976220
 H           10.031149           -4.554366            3.054303
 H            8.968541           -6.761775            3.534330
 H            6.728731           -7.294597            2.670578
 H            5.458037           -5.635667            1.304359
 H            5.329593           -3.404165            0.262923
 H            3.827128           -0.416360            0.828198
 H            1.368547           -0.413523            1.101535
 H           -1.077502           -0.407582            1.379599
 H           -3.534573           -0.400661            1.666190

