110

 C           20.166913            2.439177           -1.370963
 C           20.160617            2.092638            0.038546
 C           19.036089            1.629984            0.632304
 C           17.798376            1.465096           -0.121999
 C           16.649633            0.997797            0.462633
 C           15.433955            0.839537           -0.293767
 C           14.264823            0.366301            0.291887
 C           13.074484            0.214700           -0.462589
 C           11.878522           -0.267084            0.125482
 C           10.715763           -0.412666           -0.623233
 C            9.495800           -0.901778           -0.035873
 C            8.353265           -1.043343           -0.780644
 C            7.115748           -1.535555           -0.194310
 C            5.988602           -1.667508           -0.940330
 C            4.725194           -2.149666           -0.341584
 C            4.727861           -3.434035            0.333490
 C            3.599314           -3.910280            0.915449
 C            2.360888           -3.152910            0.879839
 C            1.198878           -3.622542            1.471205
 C           -0.002635           -2.865991            1.424268
 C           -1.201003           -3.336683            2.024571
 C           -2.366353           -2.588338            1.972726
 C           -3.601993           -3.050864            2.579203
 C           -4.734042           -2.306736            2.515829
 C           -4.737333           -1.024637            1.836832
 C           -6.003752           -0.263038            1.777260
 C           -7.123322           -0.800461            1.227832
 C           -8.362226           -0.041024            1.149522
 C           -9.496673           -0.570358            0.590199
 C          -10.717383            0.189119            0.513406
 C          -11.871695           -0.340390           -0.052950
 C          -13.068124            0.416059           -0.123674
 C          -14.249811           -0.114301           -0.699173
 C          -15.419269            0.635550           -0.764084
 C          -16.626209            0.107535           -1.346632
 C          -17.775265            0.853164           -1.406954
 C          -19.004171            0.330567           -1.994048
 C          -20.129173            1.080896           -2.044898
 C          -20.144670            2.432056           -1.514809
 C          -19.034574            2.970129           -0.958469
 C          -17.790850            2.212462           -0.873577
 C          -16.656549            2.741174           -0.313250
 C          -15.434680            1.982308           -0.235560
 C          -14.279982            2.511570            0.331119
 C          -13.083297            1.755329            0.401713
 C          -11.901220            2.285990            0.976864
 C          -10.732036            1.536017            1.041298
 C           -9.524203            2.064686            1.622303
 C           -8.376094            1.318271            1.681641
 C           -7.145068            1.838868            2.266072
 C           -6.019028            1.091808            2.312650
 C           -3.600512           -0.547931            1.257416
 C           -2.368445           -1.309733            1.299191
 C           -1.205690           -0.840486            0.708043
 C           -0.005902           -1.598493            0.754963
 C            1.190669           -1.127410            0.152621
 C            2.356506           -1.875531            0.203951
 C            3.585277           -1.406671           -0.404737
 C            5.994166           -1.323146           -2.355950
 C            7.118391           -0.862180           -2.949246
 C            8.357570           -0.694572           -2.198086
 C            9.504763           -0.225857           -2.784002
 C           10.721019           -0.067327           -2.028068
 C           11.889883            0.406178           -2.614152
 C           13.080435            0.557862           -1.859758
 C           14.277142            1.039144           -2.447589
 C           15.440190            1.184566           -1.698886
 C           16.662171            1.672793           -2.284952
 C           17.804726            1.813517           -1.540111
 C           19.048555            2.306848           -2.121234
 H           21.100052            2.806546           -1.795644
 H           21.089317            2.219218            0.593171
 H           19.015965            1.365732            1.689133
 H           16.628105            0.733193            1.519584
 H           14.252622            0.104146            1.349508
 H           11.880349           -0.525364            1.184130
 H            9.507446           -1.156779            1.023561
 H            7.126898           -1.784743            0.867070
 H            5.660505           -3.997528            0.349288
 H            3.588131           -4.873348            1.425848
 H            1.193100           -4.584657            1.982859
 H           -1.190399           -4.302348            2.529426
 H           -3.586045           -4.016082            3.085391
 H           -5.665167           -2.641972            2.972088
 H           -7.126804           -1.811583            0.820031
 H           -9.501089           -1.583009            0.187619
 H          -11.866552           -1.354155           -0.452551
 H          -14.230830           -1.129356           -1.095046
 H          -16.597935           -0.908353           -1.740043
 H          -18.977185           -0.685025           -2.387670
 H          -21.051392            0.699711           -2.480974
 H          -21.077818            2.989429           -1.582701
 H          -19.031113            3.982781           -0.556490
 H          -16.651790            3.753882            0.089197
 H          -14.284494            3.525224            0.731109
 H          -11.919256            3.300954            1.373016
 H           -9.550599            3.080945            2.014894
 H           -7.170158            2.853648            2.663321
 H           -5.096003            1.469682            2.752323
 H           -3.587220            0.410984            0.739047
 H           -1.198865            0.121555            0.196240
 H            1.178607           -0.162425           -0.353506
 H            3.566782           -0.437639           -0.903790
 H            5.065470           -1.457696           -2.910354
 H            7.135842           -0.601291           -4.007473
 H            9.523959            0.039261           -3.840854
 H           11.900913            0.667787           -3.671903
 H           14.274819            1.297010           -3.506352
 H           16.650595            1.928262           -3.344260
 H           19.038179            2.562731           -3.180226

