110

 C            7.146964            7.985220            3.233149
 C            5.828607            7.618519            3.716592
 C            5.338999            6.373642            3.512364
 C            6.116280            5.364300            2.801414
 C            5.634924            4.099478            2.581350
 C            6.411635            3.113369            1.874487
 C            5.924981            1.831766            1.639470
 C            6.692858            0.863295            0.944425
 C            8.006659            1.224051            0.482727
 C            8.493775            2.534111            0.722232
 C            7.728475            3.476621            1.399795
 C            8.207752            4.812889            1.645073
 C            7.443524            5.732696            2.316160
 C            7.914132            7.090526            2.568263
 C            8.789723            0.265620           -0.205958
 C            8.313688           -1.018830           -0.442305
 C            9.109050           -1.993484           -1.144349
 C            8.642628           -3.260224           -1.381886
 C            9.433785           -4.254830           -2.097698
 C            8.953673           -5.500296           -2.320044
 C            7.635548           -5.883352           -1.848598
 C            6.856184           -5.001687           -1.180335
 C            7.314437           -3.642753           -0.914148
 C            6.535324           -2.733334           -0.246476
 C            6.993731           -1.392526            0.014935
 C            6.206610           -0.451969            0.687438
 C            4.841447           -0.820181            1.136697
 C            4.691165           -1.406749            2.454898
 C            3.466973           -1.775593            2.907199
 C            2.278271           -1.592663            2.092620
 C            1.020243           -1.964212            2.540371
 C           -0.131313           -1.776322            1.729372
 C           -1.426549           -2.150194            2.178803
 C           -2.543169           -1.958264            1.380539
 C           -3.875497           -2.331005            1.823448
 C           -4.959040           -2.132159            1.032567
 C           -4.809507           -1.541732           -0.284067
 C           -6.029280           -1.352888           -1.107178
 C           -6.478573           -2.386145           -1.935247
 C           -5.806714           -3.658664           -2.011548
 C           -6.253930           -4.660328           -2.833797
 C           -5.579211           -5.951046           -2.913693
 C           -6.029500           -6.925021           -3.738190
 C           -7.201288           -6.712326           -4.567764
 C           -7.871929           -5.537621           -4.531083
 C           -7.436639           -4.449661           -3.662251
 C           -8.100840           -3.252034           -3.608399
 C           -7.655352           -2.183080           -2.751092
 C           -8.330795           -0.969337           -2.701742
 C           -7.891563            0.082141           -1.859958
 C           -8.580778            1.320206           -1.811164
 C           -8.153081            2.353187           -0.984057
 C           -8.839196            3.618538           -0.928105
 C           -8.407405            4.628441           -0.106731
 C           -9.089497            5.916532           -0.042651
 C           -8.649550            6.901775            0.774145
 C           -7.482528            6.704618            1.613995
 C           -6.809444            5.530749            1.597301
 C           -7.232071            4.430950            0.737151
 C           -6.559757            3.236348            0.703705
 C           -6.985602            2.159719           -0.153115
 C           -6.301824            0.949149           -0.198447
 C           -6.723651           -0.109002           -1.042277
 C           -3.580682           -1.178223           -0.743810
 C           -2.394433           -1.370586            0.068384
 C           -1.135029           -1.006044           -0.382773
 C            0.016924           -1.195561            0.427299
 C            1.311866           -0.820528           -0.021378
 C            2.427972           -1.005484            0.780420
 C            3.756259           -0.627076            0.337571
 H            7.489219            9.001035            3.425673
 H            5.255633            8.379091            4.244850
 H            4.351166            6.084423            3.869754
 H            4.646460            3.807325            2.936280
 H            4.929119            1.557682            1.994747
 H            9.488443            2.796631            0.363008
 H            9.200222            5.072743            1.277832
 H            8.904933            7.352998            2.199351
 H            9.782637            0.549759           -0.553810
 H           10.098802           -1.690288           -1.484377
 H           10.421012           -3.952697           -2.445037
 H            9.534602           -6.249603           -2.855675
 H            7.302750           -6.899564           -2.052990
 H            5.864261           -5.274138           -0.820476
 H            5.538917           -3.010561            0.104775
 H            5.590359           -1.538203            3.056926
 H            3.338645           -2.220935            3.893597
 H            0.898405           -2.408193            3.528188
 H           -1.529664           -2.593084            3.169244
 H           -3.971585           -2.776267            2.813541
 H           -5.963950           -2.405956            1.354143
 H           -4.920712           -3.806725           -1.390114
 H           -4.701096           -6.095686           -2.284661
 H           -5.532752           -7.891419           -3.805883
 H           -7.515560           -7.529792           -5.214933
 H           -8.753567           -5.363582           -5.146634
 H           -8.986956           -3.077322           -4.217782
 H           -9.215490           -0.814072           -3.318763
 H           -9.461349            1.454398           -2.438723
 H           -9.715250            3.750732           -1.562420
 H           -9.963894            6.051682           -0.678049
 H           -9.151531            7.866713            0.828343
 H           -7.174304            7.531918            2.251493
 H           -5.932139            5.368262            2.222753
 H           -5.680700            3.071296            1.327025
 H           -5.418538            0.803541            0.427517
 H           -3.456327           -0.734532           -1.731975
 H           -1.013157           -0.565317           -1.372410
 H            1.416024           -0.381323           -1.013715
 H            3.857265           -0.186512           -0.654656

