110

 C           -8.678955            6.791717            5.788105
 C           -7.296331            7.140976            5.517726
 C           -6.597017            6.499722            4.553065
 C           -7.207448            5.441057            3.756413
 C           -6.514322            4.781475            2.774557
 C           -7.129076            3.739248            1.992965
 C           -6.432900            3.066957            0.994481
 C           -7.048117            2.042823            0.231235
 C           -6.344590            1.352131           -0.786873
 C           -6.955268            0.348506           -1.531493
 C           -6.248321           -0.363306           -2.565058
 C           -6.853835           -1.349058           -3.300898
 C           -8.251343           -1.687215           -3.044129
 C           -8.947080           -1.031402           -2.060628
 C           -8.334598            0.003115           -1.268213
 C           -9.032980            0.673504           -0.268946
 C           -8.418905            1.695913            0.497098
 C           -9.119740            2.387285            1.517770
 C           -8.507555            3.390681            2.261337
 C           -9.209370            4.101128            3.300048
 C           -8.598670            5.089810            4.027852
 C           -9.297961            5.817875            5.081228
 C           -8.876195           -2.724891           -3.855971
 C           -8.183368           -3.365911           -4.825240
 C           -6.793721           -3.045786           -5.078026
 C           -6.154205           -2.092242           -4.352711
 C           -4.725561           -1.792117           -4.613745
 C           -4.408885           -0.792262           -5.615344
 C           -3.117481           -0.505434           -5.915432
 C           -2.021734           -1.183981           -5.245166
 C           -0.696613           -0.912294           -5.548859
 C            0.361717           -1.582452           -4.877664
 C            1.724295           -1.311053           -5.176906
 C            2.747341           -1.972782           -4.515532
 C            4.146209           -1.705147           -4.801873
 C            5.134792           -2.376444           -4.159955
 C            4.813728           -3.386163           -3.169640
 C            5.932289           -4.124441           -2.534939
 C            6.351798           -5.304577           -3.060040
 C            7.433656           -6.048563           -2.449127
 C            8.049476           -5.586363           -1.336567
 C            7.648774           -4.325870           -0.722610
 C            8.265687           -3.852081            0.407207
 C            7.876406           -2.603585            1.009058
 C            8.497166           -2.116549            2.155161
 C            8.108127           -0.882465            2.732838
 C            8.735014           -0.374571            3.899231
 C            8.347666            0.839124            4.456263
 C            8.979570            1.366663            5.639016
 C            8.592657            2.564599            6.181968
 C            9.225697            3.111072            7.377566
 C            8.830341            4.295511            7.899179
 C            7.761112            5.058575            7.281744
 C            7.137325            4.602087            6.171280
 C            7.517311            3.332842            5.560451
 C            6.897419            2.855581            4.434705
 C            7.283250            1.601380            3.839752
 C            6.661648            1.111842            2.696422
 C            7.050646           -0.123827            2.119428
 C            6.423066           -0.629634            0.953920
 C            6.811464           -1.842810            0.394339
 C            6.178688           -2.368764           -0.787815
 C            6.565721           -3.563618           -1.338256
 C            3.518287           -3.658139           -2.852886
 C            2.429242           -2.961141           -3.510057
 C            1.103905           -3.227793           -3.203049
 C            0.047028           -2.553900           -3.871786
 C           -1.314591           -2.824587           -3.569985
 C           -2.338574           -2.167784           -4.234844
 C           -3.733314           -2.445002           -3.949022
 H           -9.192176            7.341233            6.575813
 H           -6.850033            7.932741            6.117564
 H           -5.558829            6.750490            4.338191
 H           -5.475355            5.030987            2.559843
 H           -5.394249            3.323441            0.786439
 H           -5.305982            1.619927           -0.981765
 H           -5.205887           -0.091527           -2.745557
 H           -9.988456           -1.278223           -1.855143
 H          -10.071649            0.415496           -0.064805
 H          -10.157298            2.119438            1.715220
 H          -10.246649            3.826761            3.490410
 H          -10.335200            5.545313            5.272749
 H           -9.920079           -2.958995           -3.650759
 H           -8.640792           -4.139691           -5.440430
 H           -6.282161           -3.599147           -5.865359
 H           -5.239528           -0.289180           -6.110182
 H           -2.863091            0.241505           -6.667195
 H           -0.448262           -0.176218           -6.313214
 H            1.954289           -0.569466           -5.941683
 H            4.370918           -0.946118           -5.551009
 H            6.187805           -2.184227           -4.365544
 H            5.887962           -5.726439           -3.951536
 H            7.725360           -6.987730           -2.917507
 H            8.861900           -6.136664           -0.863582
 H            9.071570           -4.413534            0.879440
 H            9.298350           -2.687306            2.623651
 H            9.534251           -0.954825            4.359507
 H            9.779207            0.780267            6.090969
 H           10.026666            2.527198            7.829686
 H            9.296480            4.712261            8.790749
 H            7.485021            6.004569            7.745157
 H            6.333433            5.163476            5.696496
 H            6.092875            3.416302            3.959255
 H            5.858677            1.679518            2.226541
 H            5.621779           -0.050113            0.495209
 H            5.373119           -1.782465           -1.235374
 H            3.264736           -4.408701           -2.103907
 H            0.855520           -3.965322           -2.439871
 H           -1.544547           -3.563424           -2.802310
 H           -3.958988           -3.194302           -3.189879

