86

 C           -7.080269           -3.853519            4.043883
 C           -5.850712           -4.065176            3.316309
 C           -5.502947           -3.245964            2.291455
 C           -6.352011           -2.135732            1.894932
 C           -7.583599           -1.928612            2.621303
 C           -7.910248           -2.832911            3.710454
 C           -8.422645           -0.881256            2.277089
 C           -8.095250            0.000532            1.213351
 C           -8.953113            1.077571            0.861655
 C           -8.632993            1.938841           -0.175818
 C           -9.493554            3.048541           -0.546762
 C           -9.158369            3.877800           -1.567885
 C           -7.936389            3.674640           -2.312428
 C           -7.100245            2.651020           -2.003262
 C           -7.410036            1.737335           -0.917874
 C           -6.566199            0.689917           -0.582398
 C           -6.877574           -0.196632            0.483714
 C           -6.015274           -1.275070            0.852024
 C           -4.741733           -1.459916            0.114173
 C           -4.728625           -2.364841           -1.019270
 C           -3.587699           -2.566770           -1.724640
 C           -2.354547           -1.884302           -1.371610
 C           -1.181267           -2.072148           -2.085598
 C            0.013762           -1.392470           -1.724491
 C            1.222838           -1.570976           -2.449818
 C            2.380622           -0.900374           -2.086460
 C            3.626593           -1.066025           -2.815006
 C            4.749449           -0.399917           -2.446439
 C            4.729387            0.502630           -1.311191
 C            5.978718            1.222450           -0.962308
 C            6.883538            0.632053           -0.027434
 C            6.639412           -0.637435            0.562977
 C            7.525371           -1.189610            1.475075
 C            7.285946           -2.485279            2.085758
 C            8.162568           -3.006027            2.981788
 C            9.358509           -2.281929            3.348616
 C            9.628595           -1.068974            2.802425
 C            8.722914           -0.467970            1.839007
 C            8.976833            0.768220            1.266617
 C            8.075946            1.342735            0.329602
 C            8.335923            2.609864           -0.255807
 C            7.456159            3.169952           -1.167912
 C            7.713404            4.467598           -1.768379
 C            6.844801            5.009778           -2.659054
 C            5.642328            4.302588           -3.032724
 C            5.358618            3.088279           -2.496698
 C            6.250766            2.463595           -1.535075
 C            3.586558            0.687724           -0.594979
 C            2.363963           -0.004783           -0.952158
 C            1.190699            0.177997           -0.236999
 C           -0.001449           -0.502741           -0.600712
 C           -1.209175           -0.318878            0.123949
 C           -2.368970           -0.984384           -0.240558
 C           -3.610145           -0.800757            0.486073
 H           -7.314053           -4.535467            4.859791
 H           -5.218172           -4.898786            3.616594
 H           -4.575357           -3.398389            1.736916
 H           -8.842101           -2.659836            4.246715
 H           -9.351075           -0.719978            2.824418
 H           -9.874894            1.217963            1.425314
 H          -10.411499            3.188546            0.022474
 H           -9.794768            4.713690           -1.854296
 H           -7.713145            4.366158           -3.123118
 H           -6.175970            2.483424           -2.555379
 H           -5.641187            0.535411           -1.142621
 H           -5.661310           -2.867290           -1.275950
 H           -3.562469           -3.245956           -2.576523
 H           -1.160816           -2.748688           -2.939635
 H            1.225707           -2.247507           -3.304097
 H            3.625937           -1.743772           -3.668406
 H            5.691073           -0.516984           -2.982991
 H            5.732835           -1.180639            0.286810
 H            6.380450           -3.018703            1.798322
 H            7.992151           -3.975736            3.446392
 H           10.028865           -2.741954            4.073045
 H           10.526021           -0.511885            3.068184
 H            9.878445            1.319704            1.531465
 H            9.244745            3.140971            0.026339
 H            8.625403            4.986098           -1.476262
 H            7.026431            5.982551           -3.113080
 H            4.977019            4.774015           -3.754005
 H            4.451836            2.547523           -2.773350
 H            3.560032            1.361761            0.261610
 H            1.169707            0.853208            0.618513
 H           -1.211087            0.358938            0.977653
 H           -3.607738           -0.118671            1.336678

