98

 C           -7.965250            7.642659            1.363658
 C           -8.513517            6.519174            1.885636
 C           -7.961129            5.204504            1.588427
 C           -8.504993            4.051666            2.108845
 C           -7.950753            2.765040            1.805662
 C           -8.497764            1.583220            2.328848
 C           -7.943785            0.329702            2.022650
 C           -8.492886           -0.886338            2.542613
 C           -7.941872           -2.110963            2.235314
 C           -8.506166           -3.348732            2.753913
 C           -7.958336           -4.548630            2.445788
 C           -6.790144           -4.631302            1.597819
 C           -6.216689           -3.508857            1.087943
 C           -5.005382           -3.615264            0.239093
 C           -5.180920           -3.872372           -1.177258
 C           -4.103648           -4.011472           -1.989656
 C           -2.751547           -3.904152           -1.469583
 C           -1.639725           -4.054733           -2.283512
 C           -0.325049           -3.937462           -1.756894
 C            0.823065           -4.084203           -2.581164
 C            2.100139           -3.963697           -2.055652
 C            3.286454           -4.103165           -2.882174
 C            4.529342           -3.998696           -2.348922
 C            4.702361           -3.747208           -0.931191
 C            6.083026           -3.689195           -0.392912
 C            6.759114           -2.395015           -0.298309
 C            6.173848           -1.220015           -0.713739
 C            6.857224            0.034447           -0.603809
 C            6.264301            1.233217           -1.030091
 C            6.940749            2.457494           -0.914913
 C            6.344963            3.686773           -1.347438
 C            7.013647            4.884567           -1.231039
 C            6.422108            6.142348           -1.666432
 C            7.096798            7.310904           -1.544848
 C            8.429075            7.340021           -0.975812
 C            9.026147            6.199461           -0.553774
 C            8.350643            4.913296           -0.659193
 C            8.941525            3.743455           -0.236756
 C            8.264309            2.485328           -0.349209
 C            8.857236            1.286181            0.075969
 C            8.181298            0.061094           -0.041418
 C            8.773546           -1.172327            0.381704
 C            8.101873           -2.368846            0.260871
 C            8.706926           -3.624721            0.681022
 C            8.039099           -4.796666            0.558691
 C            6.700595           -4.830590            0.012982
 C            3.620714           -3.592213           -0.119477
 C            2.273419           -3.692045           -0.646801
 C            1.160610           -3.543600            0.166573
 C           -0.152998           -3.661180           -0.361050
 C           -1.300075           -3.513121            0.463800
 C           -2.577705           -3.631152           -0.061012
 C           -3.758015           -3.494208            0.770500
 C           -6.772742           -2.185648            1.373086
 C           -6.233104           -1.027528            0.859520
 C           -6.794370            0.255657            1.160568
 C           -6.248053            1.437571            0.635567
 C           -6.802857            2.690051            0.939963
 C           -6.253502            3.902693            0.409452
 C           -6.801835            5.128292            0.713328
 C           -6.255389            6.369761            0.182341
 C           -6.809975            7.566293            0.492386
 H           -8.371394            8.629771            1.579376
 H           -9.382252            6.561984            2.541191
 H           -9.373496            4.096220            2.765625
 H           -9.367071            1.638453            2.983571
 H           -9.366115           -0.820151            3.191095
 H           -9.383550           -3.271049            3.394790
 H           -8.373026           -5.481386            2.825851
 H           -6.383572           -5.620419            1.387598
 H           -6.199675           -3.948257           -1.556689
 H           -4.219851           -4.207603           -3.055320
 H           -1.761635           -4.266398           -3.345483
 H            0.683520           -4.294961           -3.641143
 H            3.140835           -4.295210           -3.944973
 H            5.426273           -4.099790           -2.959582
 H            5.167367           -1.220516           -1.137970
 H            5.261342            1.212027           -1.457071
 H            5.342763            3.649265           -1.773589
 H            5.419839            6.105765           -2.091640
 H            6.663846            8.256458           -1.867324
 H            8.926182            8.306123           -0.901943
 H           10.026971            6.207029           -0.124101
 H            9.942456            3.752711            0.194212
 H            9.858890            1.305744            0.504633
 H            9.777727           -1.142247            0.803855
 H            9.713981           -3.583563            1.094292
 H            8.481979           -5.742665            0.867755
 H            6.204203           -5.798334           -0.056587
 H            3.737430           -3.396295            0.946548
 H            1.281708           -3.334363            1.229302
 H           -1.159498           -3.304145            1.524184
 H           -3.612880           -3.296944            1.832803
 H           -5.357854           -1.064245            0.207090
 H           -5.378064            1.380254           -0.019099
 H           -5.385282            3.829442           -0.244991
 H           -5.386790            6.297623           -0.471145
 H           -6.409381            8.500015            0.100890

