98

 C           -4.364543            6.821090           -1.357578
 C           -4.287600            6.194816           -0.073928
 C           -4.215374            4.832019            0.030136
 C           -4.214293            4.010571           -1.147983
 C           -4.133970            2.595459           -1.068813
 C           -4.129303            1.806504           -2.208811
 C           -4.214863            2.442616           -3.497454
 C           -4.293305            3.822991           -3.588680
 C           -4.292678            4.633583           -2.423874
 C           -4.367935            6.065732           -2.498804
 C           -4.219701            1.618629           -4.702530
 C           -4.143056            0.275150           -4.637730
 C           -4.045937           -0.423038           -3.359443
 C           -3.958582           -1.805509           -3.316990
 C           -3.861349           -2.493755           -2.080376
 C           -3.769929           -3.925661           -2.016031
 C           -3.692564           -4.565381           -0.810318
 C           -3.701474           -3.812438            0.411995
 C           -3.672790           -4.555802            1.694944
 C           -4.822229           -5.114458            2.168707
 C           -4.832374           -5.854436            3.406018
 C           -3.693297           -6.008256            4.126949
 C           -2.441722           -5.428408            3.673490
 C           -1.276492           -5.574880            4.409986
 C           -0.051928           -5.011422            3.964270
 C            1.146769           -5.156672            4.711330
 C            2.338102           -4.604664            4.267086
 C            3.563896           -4.750758            5.031684
 C            4.723328           -4.193996            4.599802
 C            4.764464           -3.452381            3.364080
 C            3.645196           -3.297166            2.602010
 C            3.733455           -2.546740            1.326101
 C            3.838527           -3.286309            0.100507
 C            3.985539           -2.630864           -1.090447
 C            4.033135           -1.195927           -1.135765
 C            4.203462           -0.490476           -2.354782
 C            4.246120            0.894711           -2.378011
 C            4.417524            1.610583           -3.638587
 C            4.450713            2.956660           -3.685452
 C            4.325043            3.766229           -2.477070
 C            4.363558            5.149390           -2.549360
 C            4.248673            5.945872           -1.380364
 C            4.282752            7.380383           -1.436237
 C            4.170599            8.122024           -0.291398
 C            4.019092            7.478641            0.976986
 C            3.982903            6.113032            1.062596
 C            4.095578            5.305769           -0.119894
 C            4.055657            3.887878           -0.060258
 C            4.163130            3.112606           -1.204546
 C            4.116154            1.642719           -1.154685
 C            3.949100            0.955941            0.037887
 C            3.908829           -0.462734            0.076124
 C            3.757723           -1.174542            1.312622
 C            2.369565           -3.865530            3.024008
 C            1.202464           -3.716828            2.289477
 C           -0.025173           -4.280092            2.732837
 C           -1.227211           -4.135440            1.988046
 C           -2.420106           -4.687230            2.431422
 C           -3.772725           -2.442194            0.381840
 C           -3.856461           -1.746623           -0.870486
 C           -3.943091           -0.330674           -0.928252
 C           -4.038120            0.339509           -2.138234
 H           -4.418897            7.907546           -1.403408
 H           -4.286552            6.826300            0.813027
 H           -4.155774            4.344900            1.002177
 H           -4.073248            2.134898           -0.080649
 H           -4.355612            4.305540           -4.563686
 H           -4.425807            6.530836           -3.481493
 H           -4.289597            2.138407           -5.658637
 H           -4.149469           -0.338255           -5.539145
 H           -3.964407           -2.383869           -4.240505
 H           -3.765450           -4.487376           -2.949466
 H           -3.624475           -5.651158           -0.749145
 H           -5.761724           -5.015353            1.625351
 H           -5.778684           -6.281612            3.735394
 H           -3.681961           -6.568139            5.061131
 H           -1.286812           -6.129071            5.348034
 H            1.115545           -5.712268            5.648042
 H            3.516437           -5.320232            5.958882
 H            5.649139           -4.291634            5.165358
 H            5.718579           -3.024814            3.056405
 H            3.804196           -4.374502            0.147891
 H            4.071041           -3.182273           -2.026141
 H            4.301845           -1.057555           -3.280069
 H            4.515134            1.008194           -4.542199
 H            4.574519            3.489463           -4.628791
 H            4.482746            5.645062           -3.512417
 H            4.398272            7.858429           -2.407597
 H            4.193849            9.210061           -0.323009
 H            3.933112            8.099347            1.867340
 H            3.867619            5.613116            2.023019
 H            3.935813            3.414052            0.916075
 H            3.844895            1.502126            0.977595
 H            3.668151           -0.603772            2.236407
 H            1.211205           -3.156204            1.351510
 H           -1.196009           -3.575592            1.050107
 H           -3.774803           -1.861369            1.303880
 H           -3.933288            0.227147            0.010462

