90

 C            3.504646           -1.402561           -6.441918
 C            3.835287           -0.018271           -6.476268
 C            4.026374            0.678338           -5.308397
 C            3.898041            0.034528           -4.037804
 C            3.562851           -1.344223           -4.007730
 C            3.371055           -2.049242           -5.238906
 C            3.422302           -2.018475           -2.756323
 C            3.614313           -1.350114           -1.567618
 C            3.492396           -2.026741           -0.283020
 C            3.697972           -1.379927            0.888847
 C            3.627110           -2.127637            2.169126
 C            4.766545           -2.647472            2.706531
 C            4.724011           -3.416218            3.925280
 C            3.545384           -3.641899            4.558788
 C            2.302653           -3.103065            4.035783
 C            1.094650           -3.327017            4.678036
 C           -0.115746           -2.782279            4.173884
 C           -1.360107           -3.016480            4.816574
 C           -2.535752           -2.476939            4.318314
 C           -3.813867           -2.737121            4.956407
 C           -4.960842           -2.209214            4.459557
 C           -4.933703           -1.360481            3.294452
 C           -3.759104           -1.077558            2.664114
 C           -3.760283           -0.163919            1.494144
 C           -3.698981            1.175292            1.685105
 C           -3.756891            2.115296            0.573269
 C           -3.714261            3.476740            0.776273
 C           -3.787199            4.384928           -0.323875
 C           -3.751809            5.799023           -0.102732
 C           -3.819379            6.672769           -1.158815
 C           -3.924203            6.178439           -2.489717
 C           -3.962733            4.826331           -2.726204
 C           -3.898120            3.888160           -1.648671
 C           -3.944504            2.463254           -1.864432
 C           -3.876832            1.589783           -0.766321
 C           -3.930234            0.160173           -0.963294
 C           -3.868169           -0.736581            0.149332
 C           -3.917493           -2.110946           -0.073847
 C           -4.034681           -2.619946           -1.380326
 C           -4.101925           -1.764137           -2.467408
 C           -4.049137           -0.362870           -2.276002
 C           -4.114040            0.556307           -3.387471
 C           -4.063608            1.900810           -3.189367
 C           -2.500493           -1.643702            3.136778
 C           -1.290686           -1.415126            2.498779
 C           -0.081218           -1.979542            2.987802
 C            1.161259           -1.769816            2.330384
 C            2.337035           -2.315558            2.823392
 C            4.031032            0.047106            0.922261
 C            4.163929            0.738560           -0.322758
 C            4.501768            2.115870           -0.324119
 C            4.696739            2.788557            0.905710
 C            4.555359            2.107516            2.103563
 C            4.223054            0.740341            2.115512
 C            4.638063            2.796940           -1.589817
 C            4.446095            2.139050           -2.764429
 C            4.099413            0.737320           -2.794906
 C            3.960541            0.051765           -1.576727
 H            3.361730           -1.932831           -7.382004
 H            3.932800            0.474475           -7.442031
 H            4.280073            1.739466           -5.333304
 H            3.118708           -3.108000           -5.199288
 H            3.160691           -3.076179           -2.762621
 H            3.236436           -3.087806           -0.301591
 H            5.734206           -2.500210            2.226586
 H            5.664113           -3.809114            4.310493
 H            3.495839           -4.228954            5.474709
 H            1.059358           -3.928306            5.585864
 H           -1.377120           -3.634615            5.713556
 H           -3.816859           -3.371607            5.841515
 H           -5.927192           -2.403607            4.923085
 H           -5.878411           -0.950297            2.937332
 H           -3.611248            1.596414            2.688441
 H           -3.625082            3.885703            1.782289
 H           -3.671343            6.164789            0.920020
 H           -3.794303            7.749310           -0.997787
 H           -3.972522            6.890005           -3.312116
 H           -4.043134            4.446098           -3.745942
 H           -3.864420           -2.806587            0.765187
 H           -4.072718           -3.699006           -1.527895
 H           -4.194998           -2.162568           -3.476221
 H           -4.203826            0.138351           -4.389692
 H           -4.111860            2.590678           -4.034453
 H           -1.252403           -0.792913            1.600922
 H            1.176127           -1.165034            1.420065
 H            4.957256            3.845578            0.901382
 H            4.701238            2.626502            3.050689
 H            4.115818            0.227453            3.072605
 H            4.898901            3.854761           -1.573580
 H            4.549865            2.660031           -3.718490

