90

 C           -3.915911            3.007828            2.623390
 C           -3.841410            1.719837            3.223554
 C           -3.805892            0.594937            2.438229
 C           -3.848632            0.693613            1.010091
 C           -3.912504            1.977640            0.410077
 C           -3.945731            3.130747            1.256632
 C           -3.951147            2.089990           -1.026396
 C           -3.921854            0.928993           -1.815325
 C           -3.970351            1.031329           -3.255838
 C           -3.946959           -0.144002           -4.068838
 C           -4.001521           -0.026274           -5.456162
 C           -4.076511            1.242779           -6.059141
 C           -4.098203            2.392750           -5.285924
 C           -4.046643            2.305031           -3.874318
 C           -4.071305            3.481290           -3.037570
 C           -4.025286            3.374701           -1.682692
 C           -3.865705           -1.442763           -3.411393
 C           -3.824349           -1.548897           -2.067077
 C           -3.857387           -0.375143           -1.197459
 C           -3.835716           -0.481391            0.182336
 C           -3.848958           -1.815435            0.834073
 C           -5.043172           -2.409040            1.117147
 C           -5.094218           -3.707220            1.741533
 C           -3.951409           -4.366574            2.058384
 C           -2.651779           -3.781060            1.780917
 C           -1.479955           -4.449150            2.100714
 C           -0.210212           -3.871575            1.834821
 C            0.996294           -4.550139            2.151189
 C            2.230727           -3.974978            1.891672
 C            3.465572           -4.672026            2.204527
 C            4.670571           -4.103296            1.947931
 C            4.751144           -2.788602            1.362644
 C            3.621967           -2.090831            1.051285
 C            3.747132           -0.734741            0.459685
 C            3.861454            0.377550            1.275475
 C            3.784326            0.283591            2.731512
 C            3.920541            1.366298            3.525047
 C            4.155557            2.692474            2.966891
 C            4.223174            2.831835            1.545919
 C            4.447277            4.113076            0.981221
 C            4.602609            5.232850            1.832774
 C            4.537267            5.079362            3.208573
 C            4.314093            3.812995            3.779802
 C            4.512505            4.235275           -0.455796
 C            4.367021            3.145410           -1.255941
 C            4.144543            1.827717           -0.707407
 C            4.071495            1.679907            0.686944
 C            4.003734            0.671125           -1.555838
 C            4.073058            0.770151           -2.981584
 C            3.945273           -0.341555           -3.776376
 C            3.730694           -1.619566           -3.188720
 C            3.657490           -1.746610           -1.824195
 C            3.799927           -0.605297           -0.970856
 C            2.300448           -2.659118            1.295623
 C            1.126957           -1.991681            0.977825
 C           -0.144803           -2.573601            1.231831
 C           -1.353639           -1.901773            0.903185
 C           -2.589469           -2.475955            1.160904
 H           -3.947420            3.887334            3.264729
 H           -3.811984            1.644606            4.309441
 H           -3.741776           -0.395343            2.893442
 H           -3.996439            4.117231            0.792154
 H           -3.986222           -0.915928           -6.083401
 H           -4.117276            1.313018           -7.145679
 H           -4.155714            3.371624           -5.758430
 H           -4.128070            4.454587           -3.524028
 H           -4.043983            4.267437           -1.053213
 H           -3.837926           -2.324842           -4.051383
 H           -3.759976           -2.525803           -1.581370
 H           -5.986610           -1.917922            0.878161
 H           -6.075661           -4.133953            1.945872
 H           -3.973570           -5.348381            2.529109
 H           -1.519895           -5.433876            2.564955
 H            0.937188           -5.539523            2.603312
 H            3.388069           -5.663711            2.647845
 H            5.604570           -4.616390            2.174755
 H            5.740511           -2.369701            1.177723
 H            3.605175           -0.707044            3.156805
 H            3.857526            1.285902            4.610391
 H            4.774792            6.215256            1.396855
 H            4.658704            5.942818            3.861990
 H            4.266312            3.716257            4.863108
 H            4.681723            5.225162           -0.878486
 H            4.416404            3.242500           -2.342966
 H            4.231220            1.753110           -3.429069
 H            4.004369           -0.263303           -4.860899
 H            3.624964           -2.487673           -3.837402
 H            3.485972           -2.723763           -1.368403
 H            1.167002           -0.999039            0.521379
 H           -1.293999           -0.913533            0.439391

