90

 C            4.874688            1.050952           -3.468343
 C            4.202805            1.978004           -2.627792
 C            3.853965            1.634645           -1.343319
 C            4.157259            0.351108           -0.789619
 C            4.772033           -0.585943           -1.666483
 C            5.142871           -0.208442           -2.996860
 C            5.005455           -1.927771           -1.243383
 C            4.638866           -2.339523            0.014769
 C            4.826971           -3.729872            0.420783
 C            4.488563           -4.161781            1.651753
 C            3.927409           -3.244734            2.635899
 C            3.730928           -1.875125            2.268119
 C            3.195645           -0.982517            3.226557
 C            2.854154           -1.448694            4.520074
 C            3.050024           -2.777477            4.854262
 C            3.586784           -3.678191            3.914826
 C            3.036211            0.394232            2.853159
 C            3.361886            0.851466            1.603945
 C            3.213555            2.321489            1.435814
 C            4.279344            3.144472            1.646818
 C            4.130149            4.577167            1.573680
 C            2.926341            5.136236            1.290655
 C            1.758370            4.308903            1.044770
 C            0.529468            4.868075            0.727876
 C           -0.605761            4.051795            0.476647
 C           -1.868071            4.607023            0.135165
 C           -2.963038            3.794980           -0.119006
 C           -4.254992            4.355874           -0.473296
 C           -5.316957            3.551867           -0.732805
 C           -5.191112            2.117082           -0.659307
 C           -4.001785            1.537454           -0.330450
 C           -3.910337            0.061035           -0.175146
 C           -4.193723           -0.378460            1.090763
 C           -4.209412           -1.772660            1.429847
 C           -4.513629           -2.217549            2.740111
 C           -4.539264           -3.571444            3.026003
 C           -4.259116           -4.517542            2.021986
 C           -3.952542           -4.104336            0.727760
 C           -3.924014           -2.708753            0.408452
 C           -3.613640           -2.243873           -0.925641
 C           -3.583834           -0.866732           -1.247430
 C           -3.241799           -0.476513           -2.602241
 C           -3.116293            0.875970           -3.051443
 C           -2.811180            1.191690           -4.354142
 C           -2.598174            0.170188           -5.317311
 C           -2.685182           -1.141887           -4.929642
 C           -2.997421           -1.486196           -3.575327
 C           -3.048682           -2.865571           -3.218628
 C           -3.336737           -3.245876           -1.930860
 C           -3.367632           -4.661564           -1.572707
 C           -3.656693           -5.071008           -0.321869
 C           -2.827975            2.357730           -0.036381
 C           -1.601605            1.806473            0.300156
 C           -0.472027            2.628154            0.561330
 C            0.791015            2.067242            0.890885
 C            1.894730            2.871956            1.127370
 C            3.857377           -0.046228            0.572248
 C            4.067060           -1.393063            0.946851
 H            5.155621            1.350911           -4.475852
 H            3.959786            2.965003           -3.019379
 H            3.308901            2.370687           -0.755521
 H            5.638275           -0.945606           -3.627200
 H            5.465619           -2.622713           -1.945937
 H            5.249381           -4.406888           -0.322342
 H            4.621747           -5.201215            1.950495
 H            2.438088           -0.751623            5.245569
 H            2.791647           -3.138179            5.849298
 H            3.733462           -4.719113            4.198509
 H            2.654340            1.082894            3.610911
 H            5.266604            2.742802            1.875449
 H            5.013396            5.188348            1.758217
 H            2.799449            6.216822            1.240515
 H            0.420851            5.950226            0.661899
 H           -1.963036            5.690570            0.071180
 H           -4.338898            5.440832           -0.519540
 H           -6.291111            3.961841           -0.998298
 H           -6.072550            1.513681           -0.876211
 H           -4.425811            0.336552            1.884056
 H           -4.727353           -1.484515            3.516155
 H           -4.777534           -3.917368            4.031274
 H           -4.284259           -5.578026            2.267625
 H           -3.251186            1.702377           -2.356843
 H           -2.724529            2.232977           -4.662104
 H           -2.365027            0.444235           -6.344124
 H           -2.516027           -1.946347           -5.644208
 H           -2.847929           -3.610761           -3.988693
 H           -3.143113           -5.375064           -2.366187
 H           -3.677107           -6.127288           -0.055033
 H           -1.484755            0.721006            0.362379
 H            0.881363            0.978908            0.947138

