62

 C            4.742355            2.118444           -2.506742
 C            4.410848            0.966205           -3.173068
 C            4.005088           -0.200351           -2.448676
 C            3.658285           -1.410540           -3.129185
 C            3.272664           -2.519353           -2.419954
 C            3.216744           -2.482249           -0.998106
 C            3.548980           -1.333575           -0.314844
 C            3.508326           -1.324596            1.168502
 C            4.593918           -1.732397            1.883673
 C            4.568070           -1.738414            3.325562
 C            3.459400           -1.341351            3.999907
 C            2.270321           -0.906786            3.289173
 C            1.126177           -0.516392            3.968735
 C           -0.032954           -0.088527            3.268630
 C           -1.216380            0.303212            3.949379
 C           -2.336561            0.728633            3.251560
 C           -3.550962            1.124284            3.942303
 C           -4.636504            1.555091            3.251325
 C           -4.611773            1.625685            1.811101
 C           -3.500687            1.257766            1.113749
 C           -3.489748            1.345602           -0.367522
 C           -3.935440            0.229643           -1.157057
 C           -4.372769           -0.999313           -0.567197
 C           -4.802002           -2.037788           -1.354262
 C           -4.814376           -1.909907           -2.774098
 C           -4.393818           -0.747230           -3.368282
 C           -3.942960            0.353567           -2.571172
 C           -3.502761            1.573650           -3.175842
 C           -3.074120            2.618557           -2.397364
 C           -3.066559            2.504970           -0.978565
 C           -2.306750            0.785018            1.807097
 C           -1.159653            0.393890            1.133593
 C           -0.008141           -0.051265            1.836908
 C            1.167452           -0.460274            1.151970
 C            2.290834           -0.887070            1.843651
 C            3.948823           -0.152597           -1.031064
 C            4.294267            1.066551           -0.364757
 C            4.681911            2.169272           -1.083324
 H            5.054203            3.009044           -3.049975
 H            4.449901            0.916517           -4.260074
 H            3.707923           -1.430509           -4.216730
 H            3.004778           -3.444768           -2.928141
 H            2.906444           -3.377951           -0.460293
 H            5.506431           -2.061042            1.386668
 H            5.464254           -2.071684            3.847749
 H            3.426800           -1.335867            5.088489
 H            1.103545           -0.534288            5.057708
 H           -1.231541            0.264491            5.037962
 H           -3.556369            1.061089            5.029477
 H           -5.551692            1.858515            3.758427
 H           -5.507313            1.979498            1.300619
 H           -4.354983           -1.092703            0.519983
 H           -5.137722           -2.973530           -0.910111
 H           -5.161258           -2.750631           -3.372637
 H           -4.394810           -0.639515           -4.451748
 H           -3.516364            1.652837           -4.261684
 H           -2.735024            3.550649           -2.847572
 H           -2.720969            3.351075           -0.384706
 H           -1.126455            0.422987            0.041614
 H            1.172422           -0.432506            0.059461
 H            4.240539            1.100306            0.724723
 H            4.947614            3.098023           -0.580843

