74

 C           -2.324161           -3.874402            4.093089
 C           -2.132810           -2.520846            4.541494
 C           -2.425187           -1.472695            3.722062
 C           -2.928511           -1.698294            2.386212
 C           -3.242398           -0.634271            1.528671
 C           -3.720397           -0.867763            0.231217
 C           -3.880091           -2.217236           -0.225060
 C           -3.576001           -3.282190            0.635721
 C           -3.106560           -3.046487            1.935459
 C           -2.792980           -4.129595            2.839797
 C           -4.352587           -2.453479           -1.570016
 C           -4.651301           -1.411850           -2.394750
 C           -4.510564           -0.057107           -1.940345
 C           -4.065944            0.212482           -0.675720
 C           -3.961671            1.618162           -0.210438
 C           -5.064606            2.253366            0.276180
 C           -4.992918            3.624054            0.718491
 C           -3.825479            4.312902            0.654397
 C           -2.618948            3.686820            0.143760
 C           -1.421692            4.382603            0.070103
 C           -0.242163            3.762545           -0.420950
 C            0.991849            4.461465           -0.499269
 C            2.137034            3.841223           -0.975056
 C            3.402637            4.549193           -1.051465
 C            4.517072            3.933153           -1.520328
 C            4.470989            2.559517           -1.956811
 C            3.309052            1.849683           -1.906569
 C            3.284349            0.441952           -2.376542
 C            3.104273            0.167609           -3.703833
 C            3.114959           -1.186791           -4.180266
 C            3.314809           -2.222691           -3.319206
 C            3.510558           -1.981049           -1.908017
 C            3.725499           -3.039031           -1.012472
 C            3.901942           -2.798872            0.357371
 C            4.132007           -3.874263            1.295402
 C            4.284497           -3.616178            2.624284
 C            4.219934           -2.267208            3.120099
 C            4.014083           -1.225580            2.266719
 C            3.852183           -1.454021            0.848840
 C            3.647979           -0.396118           -0.048518
 C            3.482373           -0.633249           -1.420667
 C            2.082676            2.461654           -1.405612
 C            0.882315            1.771830           -1.332963
 C           -0.297695            2.395523           -0.845470
 C           -1.531473            1.695073           -0.770058
 C           -2.678959            2.309172           -0.291902
 H           -2.083510           -4.682063            4.782456
 H           -1.749029           -2.362677            5.547818
 H           -2.285588           -0.442512            4.047850
 H           -3.109666            0.392430            1.876746
 H           -3.705655           -4.306592            0.288735
 H           -2.944022           -5.149010            2.488403
 H           -4.459324           -3.485647           -1.900397
 H           -5.005492           -1.576574           -3.411515
 H           -4.769625            0.747193           -2.628407
 H           -6.025784            1.743970            0.343050
 H           -5.904931            4.081049            1.100450
 H           -3.757801            5.349112            0.982764
 H           -1.371857            5.422666            0.390761
 H            1.025469            5.501912           -0.177766
 H            3.422878            5.586390           -0.719863
 H            5.472568            4.452451           -1.582883
 H            5.391774            2.109143           -2.327247
 H            2.952376            0.967829           -4.427744
 H            2.962962           -1.355859           -5.245531
 H            3.330325           -3.254087           -3.668282
 H            3.754689           -4.061566           -1.386889
 H            4.180196           -4.890195            0.906736
 H            4.457460           -4.418148            3.340088
 H            4.338988           -2.107244            4.190235
 H            3.963139           -0.198898            2.627563
 H            3.614971            0.628436            0.328367
 H            0.829077            0.727476           -1.650945
 H           -1.562060            0.652199           -1.095922

