74

 C            6.821218            1.527618            3.376388
 C            6.084523            2.462508            2.713572
 C            5.274440            2.092119            1.575281
 C            4.504096            3.033509            0.878125
 C            3.726797            2.654233           -0.226213
 C            2.922204            3.617037           -0.943106
 C            2.169966            3.235884           -2.012539
 C            2.170825            1.870691           -2.456671
 C            2.923104            0.928157           -1.812325
 C            2.947914           -0.468530           -2.312926
 C            3.945785           -0.870429           -3.149525
 C            3.977288           -2.214702           -3.669997
 C            3.008635           -3.106327           -3.341685
 C            1.922281           -2.732965           -2.453579
 C            0.925361           -3.635994           -2.117802
 C           -0.127575           -3.272168           -1.237034
 C           -1.162591           -4.182721           -0.896451
 C           -2.185530           -3.814933           -0.035817
 C           -3.259273           -4.735161            0.293535
 C           -4.257768           -4.367355            1.135387
 C           -4.269337           -3.054860            1.732154
 C           -3.283987           -2.153731            1.458553
 C           -3.310099           -0.820525            2.109664
 C           -3.833666            0.324160            1.385481
 C           -4.273820            0.234974            0.056997
 C           -4.783514            1.356298           -0.613105
 C           -5.234643            1.279912           -1.984033
 C           -5.734708            2.379058           -2.614429
 C           -5.821696            3.639105           -1.925584
 C           -5.401219            3.754360           -0.634848
 C           -4.862625            2.613093            0.070000
 C           -4.417730            2.705883            1.396299
 C           -3.901076            1.585500            2.063827
 C           -3.431374            1.676749            3.427480
 C           -2.930193            0.582431            4.064704
 C           -2.870369           -0.687266            3.397649
 C           -2.196750           -2.490672            0.545187
 C           -1.190008           -1.594899            0.217460
 C           -0.147773           -1.952311           -0.680345
 C            0.872912           -1.031981           -1.042991
 C            1.890819           -1.391950           -1.913233
 C            3.724393            1.286301           -0.655266
 C            4.488204            0.344398            0.049022
 C            5.262300            0.722495            1.155449
 C            6.054783           -0.237612            1.889666
 C            6.805553            0.151377            2.957754
 H            7.435458            1.795790            4.234532
 H            6.085517            3.506667            3.022652
 H            4.509394            4.074650            1.198668
 H            2.936039            4.650979           -0.601433
 H            1.555247            3.950901           -2.557943
 H            1.561438            1.608997           -3.321771
 H            4.741737           -0.188319           -3.448586
 H            4.798709           -2.483325           -4.333087
 H            3.017327           -4.124029           -3.729018
 H            0.938748           -4.644167           -2.530382
 H           -1.142732           -5.183472           -1.326565
 H           -3.235518           -5.723680           -0.162657
 H           -5.072165           -5.046020            1.385869
 H           -5.089495           -2.808305            2.406347
 H           -4.217089           -0.722124           -0.466372
 H           -5.158989            0.319812           -2.493465
 H           -6.077246            2.332131           -3.646853
 H           -6.230683            4.491577           -2.465567
 H           -5.459010            4.703046           -0.103438
 H           -4.474504            3.661669            1.915962
 H           -3.490355            2.643357            3.925610
 H           -2.568521            0.638932            5.090656
 H           -2.469369           -1.539838            3.945800
 H           -1.186996           -0.590605            0.649021
 H            0.841249           -0.023758           -0.622050
 H            4.478976           -0.701176           -0.266317
 H            6.029786           -1.276603            1.563128
 H            7.406573           -0.563743            3.517134

