94

 C           -5.969910            7.822980           -3.591495
 C           -5.640827            7.157812           -2.458804
 C           -5.456353            5.712087           -2.461562
 C           -5.117773            5.030049           -1.316408
 C           -4.929497            3.608283           -1.344585
 N           -4.584818            2.949119           -0.205298
 C           -4.408105            1.602696           -0.280440
 C           -4.036565            0.866373            0.894061
 C           -3.856272           -0.495123            0.835650
 C           -3.476761           -1.262589            2.015604
 C           -3.325707           -2.605852            1.961814
 C           -3.539004           -3.324077            0.714388
 C           -3.411283           -4.801246            0.733294
 C           -4.498685           -5.567512            1.028344
 C           -4.408032           -7.006815            1.040311
 C           -3.237063           -7.626875            0.748808
 C           -2.047358           -6.859524            0.425409
 C           -0.849613           -7.486605            0.118319
 C            0.315810           -6.733813           -0.185283
 C            1.545289           -7.364230           -0.513260
 C            2.678984           -6.618379           -0.797904
 C            3.933282           -7.260400           -1.148620
 C            5.040756           -6.524705           -1.419080
 C            4.998177           -5.084600           -1.355003
 C            3.845863           -4.433300           -1.031221
 C            3.838243           -2.952560           -0.953156
 C            3.572304           -2.205707           -2.173350
 C            3.600928           -0.853104           -2.171083
 C            3.898175           -0.103566           -0.956464
 C            3.954749            1.269972           -0.957422
 C            4.247722            1.987531            0.250587
 N            4.302786            3.346293            0.232419
 C            4.577143            3.985817            1.401770
 C            4.637331            5.418625            1.433676
 C            4.904328            6.079925            2.609611
 C            4.959104            7.535186            2.667640
 C            5.218687            8.179361            3.830148
 C            5.454575            7.435965            5.052444
 C            5.418345            6.082392            5.057689
 C            5.138591            5.332394            3.839757
 C            5.092179            3.957883            3.838584
 C            4.808029            3.240184            2.629703
 N            4.755936            1.880426            2.646781
 C            4.478892            1.241313            1.478377
 C            4.415558           -0.191496            1.446175
 C            4.140887           -0.852082            0.271465
 C            4.097289           -2.305319            0.212256
 C            2.621237           -5.174154           -0.749198
 C            1.421706           -4.550073           -0.440793
 C            0.249217           -5.303136           -0.160746
 C           -0.987919           -4.672295            0.142956
 C           -2.123735           -5.415262            0.427491
 C           -3.870493           -2.656954           -0.421032
 C           -4.045880           -1.212323           -0.420003
 C           -4.393620           -0.532225           -1.563847
 C           -4.586188            0.889158           -1.536112
 N           -4.933736            1.547761           -2.674597
 C           -5.107354            2.895488           -2.600540
 C           -5.468823            3.633527           -3.776142
 C           -5.637477            4.997266           -3.719805
 C           -5.996813            5.768228           -4.903354
 C           -6.152908            7.111838           -4.841705
 H           -6.106840            8.903820           -3.599762
 H           -5.501452            7.677960           -1.510857
 H           -4.979336            5.540398           -0.360173
 H           -3.905152            1.426443            1.823227
 H           -3.320054           -0.709043            2.942565
 H           -3.043523           -3.189650            2.838603
 H           -5.463325           -5.115296            1.258553
 H           -5.307068           -7.570821            1.286504
 H           -3.152682           -8.712968            0.749868
 H           -0.788022           -8.574621            0.106667
 H            1.585050           -8.453005           -0.539170
 H            3.949813           -8.348931           -1.187915
 H            5.986900           -6.994193           -1.686172
 H            5.916026           -4.537000           -1.568794
 H            3.352805           -2.775815           -3.076599
 H            3.403148           -0.278520           -3.077101
 H            3.781514            1.853826           -1.864752
 H            4.461534            5.953817            0.497427
 H            4.781467            8.079567            1.739949
 H            5.258671            9.266816            3.883891
 H            5.660751            8.005105            5.958395
 H            5.595197            5.509459            5.968203
 H            5.265886            3.373965            4.745593
 H            4.594868           -0.728308            2.380855
 H            4.289209           -2.854216            1.135442
 H            1.362001           -3.459899           -0.406964
 H           -1.029783           -3.580761            0.146376
 H           -4.023861           -3.183443           -1.364189
 H           -4.535343           -1.044601           -2.518467
 H           -5.600531            3.073970           -4.705263
 H           -6.132585            5.219363           -5.835448
 H           -6.419010            7.696555           -5.721708

