96

 C            3.326063            5.471745            0.452707
 C            4.459205            4.719005            0.395024
 C            4.406997            3.354525            0.834970
 C            5.345452            2.336497            0.910294
 C            6.758983            2.211639            0.599046
 C            7.302440            2.917747           -0.488457
 C            8.666470            2.816792           -0.769611
 C            9.492155            2.013378            0.023806
 C            8.950509            1.300572            1.098713
 C            7.588064            1.394341            1.387912
 O            4.748200            1.183094            1.437869
 C            3.404447            1.492934            1.697492
 C            2.610622            0.396710            2.225274
 C            1.571909            0.657360            3.136129
 C            0.793004           -0.395585            3.620430
 C            1.039788           -1.707264            3.206891
 C            2.077884           -1.968965            2.299902
 C            2.330283           -3.357313            1.844236
 C            3.130320           -4.187839            2.568281
 C            3.371325           -5.542427            2.134406
 C            2.800524           -6.018425            0.998930
 C            1.936719           -5.177423            0.189350
 C            1.340261           -5.654898           -0.967715
 C            0.493931           -4.827070           -1.752591
 C           -0.139320           -5.305179           -2.929848
 C           -0.979876           -4.491002           -3.674183
 C           -1.630402           -4.985484           -4.873997
 C           -2.451988           -4.185559           -5.599104
 C           -2.704931           -2.827619           -5.187170
 C           -2.122703           -2.311457           -4.066634
 C           -2.428758           -0.918204           -3.663957
 C           -2.133464            0.141613           -4.536863
 C           -2.458167            1.452814           -4.179721
 C           -3.066667            1.721019           -2.951909
 C           -3.349399            0.664821           -2.069114
 C           -3.950345            0.927666           -0.771355
 C           -3.758679            0.437937            0.510842
 C           -2.854111           -0.519553            1.080556
 C           -2.913060           -0.762031            2.419256
 C           -3.861803           -0.077754            3.272722
 C           -4.736131            0.840388            2.776082
 C           -4.713807            1.128055            1.370491
 C           -5.429459            1.994604            0.558212
 C           -6.517935            2.934470            0.764876
 C           -6.593825            4.120468            0.013796
 C           -7.640479            5.018067            0.234862
 C           -8.615680            4.739527            1.198095
 C           -8.547268            3.555163            1.939390
 C           -7.504810            2.651489            1.726262
 O           -4.964963            1.895347           -0.761956
 C           -3.041846           -0.656671           -2.430747
 C           -1.215541           -3.124567           -3.260893
 C           -0.574957           -2.641833           -2.129653
 C            0.269851           -3.472752           -1.345586
 C            0.888854           -2.994186           -0.159671
 C            1.699612           -3.814455            0.609717
 C            2.868073           -0.921083            1.812391
 C            3.153361            2.809916            1.344597
 C            1.983220            3.639546            1.378817
 C            2.078452            4.927079            0.945802
 H            3.324155            6.510559            0.126350
 H            5.405476            5.114791            0.033195
 H            6.658100            3.532910           -1.115299
 H            9.086986            3.363842           -1.612249
 H           10.555832            1.941640           -0.196641
 H            9.592458            0.671337            1.713700
 H            7.158881            0.838976            2.222644
 H            1.380993            1.677241            3.467953
 H           -0.014165           -0.191265            4.323705
 H            0.430021           -2.526932            3.584243
 H            3.607350           -3.852287            3.488880
 H            4.022444           -6.163363            2.748536
 H            2.971732           -7.039886            0.661507
 H            1.512812           -6.681079           -1.290486
 H            0.045199           -6.332509           -3.242464
 H           -1.435142           -6.016237           -5.167179
 H           -2.944233           -4.542865           -6.502690
 H           -3.385427           -2.231061           -5.794959
 H           -1.649147           -0.061321           -5.491553
 H           -2.232831            2.271426           -4.862922
 H           -3.322334            2.742477           -2.671517
 H           -2.141744           -1.019832            0.427727
 H           -2.242252           -1.479991            2.889155
 H           -3.849343           -0.324402            4.333155
 H           -5.445928            1.371291            3.406478
 H           -5.834532            4.331411           -0.739167
 H           -7.696762            5.937966           -0.345509
 H           -9.429123            5.442465            1.369713
 H           -9.311673            3.333596            2.682870
 H           -7.460593            1.722638            2.293944
 H           -3.291954           -1.479973           -1.759720
 H           -0.706108           -1.602517           -1.820885
 H            0.711407           -1.958784            0.139886
 H            3.679142           -1.122461            1.110035
 H            1.050229            3.213723            1.741847
 H            1.213672            5.588946            0.957721

