96

 C           -4.631264           -2.140111            1.606875
 C           -3.461371           -2.439113            0.979064
 C           -2.920544           -1.500265            0.037852
 C           -1.790236           -1.497619           -0.762734
 C           -0.670183           -2.428453           -0.947576
 C            0.222211           -4.065453           -2.213081
 C            1.478923           -4.597798           -1.587278
 C            1.347870           -4.757363           -0.260683
 C            0.039499           -4.190005            0.241558
 C            0.150682           -2.618405            0.369525
 O           -1.744045           -0.317396           -1.507968
 C           -2.885298            0.435565           -1.168025
 C           -3.020816            1.665112           -1.934081
 C           -2.897515            1.587336           -3.334950
 C           -3.033900            2.728779           -4.123121
 C           -3.295212            3.964473           -3.520746
 C           -3.409003            4.054313           -2.133269
 C           -3.267242            2.912355           -1.326303
 C           -3.373763            3.081097            0.143317
 C           -4.576307            3.392759            0.705801
 C           -4.699468            3.586313            2.129151
 C           -3.613694            3.491122            2.937511
 C           -2.301984            3.193844            2.390569
 C           -1.180159            3.134567            3.204326
 C            0.102454            2.848488            2.666376
 C            1.267878            2.812999            3.477913
 C            2.512027            2.532527            2.933293
 C            3.710628            2.518917            3.753112
 C            4.924405            2.252067            3.208184
 C            5.054309            1.966891            1.800300
 C            3.959591            1.949734            0.989324
 C            4.099395            1.645647           -0.455602
 C            4.634073            2.624656           -1.306676
 C            4.742665            2.386991           -2.678297
 C            4.319378            1.166699           -3.214685
 C            3.797859            0.180027           -2.376457
 C            3.689321            0.407494           -0.993877
 C            3.160622           -0.644691           -0.138323
 C            3.635657           -1.373422            0.935591
 C            4.884140           -1.400628            1.645198
 C            5.033014           -2.273769            2.678264
 C            3.963935           -3.164742            3.081815
 C            2.764855           -3.175045            2.438108
 C            2.565355           -2.283142            1.331390
 C            1.509677           -2.057665            0.463516
 C           -0.834935           -4.008225           -1.034998
 C           -0.000489           -2.522847           -2.359367
 C           -1.072990           -2.342644           -3.405882
 C           -2.236842           -3.021110           -3.449415
 C           -2.755503           -4.044358           -2.525726
 C           -2.158279           -4.519506           -1.413873
 O            1.851805           -1.063093           -0.453420
 C            2.633336            2.250817            1.520273
 C            1.501622            2.286318            0.720594
 C            0.225209            2.594690            1.262390
 C           -0.929924            2.662568            0.438999
 C           -2.175283            2.964755            0.968313
 C           -3.628883           -0.250991           -0.225552
 C           -4.863355            0.015296            0.457514
 C           -5.337769           -0.903389            1.342575
 H           -5.074335           -2.823480            2.328503
 H           -2.920154           -3.365205            1.156485
 H           -0.061442           -4.647768           -3.103333
 H            2.330994           -4.846728           -2.196875
 H            2.067952           -5.164667            0.428356
 H           -0.398612           -4.698670            1.102670
 H           -0.437431           -2.247743            1.245848
 H           -2.692518            0.619961           -3.796178
 H           -2.937681            2.658706           -5.205225
 H           -3.405857            4.856964           -4.134751
 H           -3.598966            5.019842           -1.663635
 H           -5.473369            3.503011            0.098146
 H           -5.688038            3.810496            2.527118
 H           -3.691940            3.633475            4.014307
 H           -1.271115            3.308602            4.275653
 H            1.168990            3.012364            4.544016
 H            3.598195            2.731319            4.815158
 H            5.829605            2.239617            3.813488
 H            6.050310            1.760729            1.411923
 H            4.956033            3.579826           -0.891170
 H            5.153410            3.156245           -3.330710
 H            4.396844            0.986317           -4.285713
 H            3.471611           -0.775254           -2.788274
 H            5.672648           -0.719586            1.333867
 H            5.964408           -2.327602            3.239016
 H            4.156073           -3.824954            3.925223
 H            1.949559           -3.831659            2.730988
 H            0.893830           -1.902244           -2.500941
 H           -0.842908           -1.594160           -4.163920
 H           -2.931564           -2.801177           -4.269132
 H           -3.742164           -4.427026           -2.805626
 H           -2.615348           -5.275747           -0.782003
 H            1.572806            2.068007           -0.347883
 H           -0.816503            2.466696           -0.630287
 H           -5.381885            0.948479            0.248993
 H           -6.268078           -0.734452            1.881918

