96

 C           -2.547219           -5.480938            0.899760
 C           -3.641880           -4.950600            1.512071
 C           -4.073437           -3.633280            1.141500
 C           -5.120868           -2.818836            1.544599
 C           -6.218558           -2.928636            2.489604
 C           -6.063658           -3.679272            3.668019
 C           -7.131260           -3.799209            4.560472
 C           -8.351509           -3.171947            4.289205
 C           -8.504108           -2.415448            3.122239
 C           -7.443804           -2.289941            2.223712
 O           -5.090615           -1.620138            0.815983
 C           -3.999798           -1.693583           -0.063884
 C           -3.833228           -0.539081           -0.927229
 C           -3.236329           -0.689932           -2.191681
 C           -3.100451            0.411465           -3.036370
 C           -3.564512            1.671323           -2.629670
 C           -3.475241            2.832256           -3.547014
 C           -4.562962            3.189162           -4.286471
 C           -4.512968            4.320710           -5.178873
 C           -3.380368            5.058569           -5.295288
 C           -2.193014            4.725616           -4.528845
 C           -1.035895            5.481397           -4.635264
 C            0.125529            5.152947           -3.887565
 C            1.311779            5.927588           -3.980783
 C            2.441563            5.596962           -3.248832
 C            3.651619            6.395072           -3.332672
 C            4.753785            6.065121           -2.613478
 C            4.749844            4.906974           -1.754358
 C            3.641269            4.122257           -1.643209
 C            3.676559            2.926201           -0.768156
 C            4.018686            1.675779           -1.305708
 C            4.112464            0.560025           -0.475089
 C            3.860558            0.684203            0.903348
 C            3.993467           -0.462514            1.782846
 C            3.436160           -0.851555            2.991392
 C            2.445786           -0.275515            3.854993
 C            2.127856           -0.919637            5.011674
 C            2.764091           -2.165452            5.384411
 C            3.697567           -2.756378            4.588228
 C            4.057826           -2.121003            3.353173
 C            4.949700           -2.433971            2.338457
 C            5.893390           -3.507428            2.080032
 C            7.076309           -3.248250            1.363440
 C            7.993652           -4.275471            1.138462
 C            7.739075           -5.564114            1.620117
 C            6.558492           -5.826644            2.322531
 C            5.633532           -4.805744            2.552270
 O            4.921823           -1.426848            1.361629
 C            3.498854            1.934463            1.436276
 C            3.405992            3.048760            0.602789
 C            2.423921            4.439524           -2.381892
 C            1.267083            3.681444           -2.279873
 C            0.098891            4.015290           -3.017506
 C           -1.095708            3.252051           -2.913242
 C           -2.228748            3.584902           -3.640398
 C           -4.149561            1.826933           -1.363417
 C           -4.284000            0.728452           -0.515827
 C           -3.346613           -2.904548            0.107337
 C           -2.189250           -3.498425           -0.497887
 C           -1.811151           -4.746872           -0.107748
 H           -2.190579           -6.478707            1.150814
 H           -4.208093           -5.493513            2.265270
 H           -5.110097           -4.157007            3.888609
 H           -7.011226           -4.381744            5.472756
 H           -9.181722           -3.270623            4.986306
 H           -9.453131           -1.923923            2.912789
 H           -7.555651           -1.699508            1.313551
 H           -2.893673           -1.672028           -2.517726
 H           -2.643734            0.293521           -4.018844
 H           -5.496688            2.630514           -4.223180
 H           -5.410765            4.558927           -5.747748
 H           -3.326239            5.917724           -5.962558
 H           -1.003875            6.344589           -5.299387
 H            1.320201            6.794294           -4.641044
 H            3.639191            7.263496           -3.989913
 H            5.667232            6.656328           -2.664765
 H            5.661152            4.678559           -1.201785
 H            4.217164            1.581498           -2.373280
 H            4.387942           -0.412688           -0.885538
 H            1.970537            0.656773            3.557457
 H            1.381104           -0.514741            5.693167
 H            2.465830           -2.615116            6.330183
 H            4.188120           -3.688474            4.858963
 H            7.267878           -2.242273            0.988103
 H            8.910767           -4.071955            0.587436
 H            8.458418           -6.362386            1.446284
 H            6.357564           -6.831958            2.689963
 H            4.708342           -5.016205            3.086942
 H            3.306528            2.035675            2.504493
 H            3.131789            4.018979            1.016637
 H            1.239135            2.809121           -1.622915
 H           -1.107991            2.390249           -2.242082
 H           -4.501430            2.808477           -1.046407
 H           -4.744136            0.842077            0.467055
 H           -1.641462           -2.931164           -1.247425
 H           -0.939008           -5.231725           -0.544025

