90

 C           -0.780012           -9.845327            4.818374
 C            0.318665           -9.063995            4.716402
 C            0.508225           -8.210770            3.546497
 N            1.584131           -7.441012            3.448873
 C            1.720731           -6.644784            2.307988
 C            2.842975           -5.812008            2.185840
 C            2.981820           -5.011878            1.040504
 N            4.085665           -4.164930            0.926105
 C            4.196752           -3.424031           -0.170215
 C            5.329190           -2.516603           -0.317868
 C            5.459134           -1.770256           -1.437714
 C            4.496286           -1.851415           -2.518349
 C            3.411763           -2.667323           -2.455705
 C            2.460178           -2.778999           -3.585714
 C            2.371440           -3.956412           -4.268639
 C            1.493667           -4.091278           -5.403959
 C            0.739278           -3.043806           -5.821112
 C            0.784449           -1.770162           -5.125550
 C            0.008832           -0.699844           -5.544082
 C            0.031564            0.538811           -4.850221
 C           -0.755936            1.643772           -5.267648
 C           -0.730452            2.844948           -4.575193
 C           -1.548790            3.967140           -4.997739
 C           -1.531105            5.137819           -4.312488
 C           -0.690201            5.295000           -3.152542
 C            0.105226            4.275644           -2.717229
 C            0.978327            4.491560           -1.539934
 C            0.355206            4.773297           -0.236860
 N           -0.964447            4.801365           -0.106451
 C           -1.501399            5.084890            1.150165
 C           -2.896870            5.110584            1.305451
 C           -3.440021            5.403839            2.565092
 N           -4.829107            5.427174            2.717754
 C           -5.319281            5.705747            3.918235
 C           -6.763481            5.742678            4.131717
 C           -7.263880            6.028595            5.354678
 C           -6.392712            6.303554            6.485971
 C           -5.046620            6.285218            6.361402
 C           -4.431470            5.987217            5.070868
 N           -3.110767            5.972608            4.948348
 C           -2.570684            5.679482            3.692662
 C           -1.176859            5.652998            3.537221
 C           -0.632622            5.353315            2.278042
 N            0.754025            5.315366            2.122249
 C            1.242994            5.033538            0.920199
 C            2.686972            4.984256            0.720800
 C            3.194027            4.716125           -0.503487
 C            2.332918            4.473082           -1.643903
 C            0.111095            2.987996           -3.406499
 C            0.870339            1.906713           -2.984646
 C            0.860172            0.672918           -3.690253
 C            1.652847           -0.431190           -3.273843
 C            1.645091           -1.630100           -3.970578
 C            3.195086           -3.495614           -1.259369
 N            2.134947           -4.286795           -1.163695
 C            1.986472           -5.059883           -0.011173
 C            0.859282           -5.887875            0.113915
 C            0.714105           -6.676979            1.264652
 N           -0.413550           -7.492669            1.391656
 C           -0.526470           -8.233433            2.486050
 C           -1.688229           -9.098666            2.670865
 C           -1.799397           -9.861175            3.781714
 H           -0.938071          -10.490390            5.684238
 H            1.097462           -9.032176            5.482104
 H            3.601357           -5.784567            2.975759
 H            6.043969           -2.480224            0.507693
 H            6.299017           -1.084930           -1.567454
 H            4.679189           -1.232282           -3.400310
 H            2.955223           -4.828023           -3.970188
 H            1.459911           -5.056686           -5.907400
 H            0.074254           -3.128118           -6.679787
 H           -0.639693           -0.800509           -6.414291
 H           -1.392379            1.531296           -6.145354
 H           -2.178871            3.831757           -5.876043
 H           -2.147132            5.984947           -4.611595
 H           -0.719881            6.251258           -2.628530
 H           -3.552346            4.901728            0.452460
 H           -7.395951            5.530643            3.266412
 H           -8.339945            6.061519            5.532921
 H           -6.870317            6.524761            7.441926
 H           -4.370575            6.485428            7.196135
 H           -0.520160            5.862408            4.388553
 H            3.313282            5.174473            1.595583
 H            4.271590            4.677888           -0.674263
 H            2.816513            4.277481           -2.604331
 H            1.486554            1.982530           -2.087622
 H            2.266701           -0.318629           -2.379044
 H            0.101591           -5.914273           -0.677445
 H           -2.440369           -9.091104            1.878404
 H           -2.659937          -10.513943            3.936841

