94

 C            1.215171            4.787407            3.255612
 C            1.073351            3.563024            4.022745
 C            1.566037            2.389483            3.565946
 C            2.248056            2.326982            2.273649
 N            2.708916            1.152991            1.852474
 C            3.331276            1.068769            0.607067
 C            3.503790            2.241104           -0.219455
 C            3.008302            3.494961            0.275762
 C            2.381440            3.561709            1.495003
 C            1.837239            4.788849            2.052634
 C            4.133989            2.134436           -1.461323
 C            4.587348            0.883111           -1.918078
 N            5.221939            0.836431           -3.157628
 C            5.654359           -0.336059           -3.619498
 C            6.334192           -0.377292           -4.912483
 C            6.773582           -1.553769           -5.416174
 C            6.584974           -2.797311           -4.693254
 C            5.965454           -2.815482           -3.488448
 C            5.473749           -1.588397           -2.885486
 C            4.849525           -1.545928           -1.660713
 C            4.397076           -0.299804           -1.113468
 C            3.786370           -0.192232            0.154893
 C            3.664760           -1.399011            1.010875
 C            4.789858           -1.929619            1.571527
 C            4.727602           -3.137409            2.354917
 C            3.548251           -3.782865            2.539043
 C            2.315824           -3.252454            1.984900
 C            1.103781           -3.895832            2.186660
 C           -0.109829           -3.342159            1.701221
 C           -1.361012           -3.984146            1.901060
 C           -2.543379           -3.395067            1.479938
 C           -3.822871           -4.059367            1.652712
 C           -4.975229           -3.464424            1.253232
 C           -4.961490           -2.140916            0.680192
 C           -3.788331           -1.470657            0.501872
 C           -3.795635           -0.080081           -0.014807
 C           -3.488250            0.994701            0.848419
 C           -3.169068            0.817460            2.235105
 C           -2.895329            1.902274            3.035999
 C           -2.574235            1.790555            4.448517
 C           -2.323358            2.894689            5.193083
 C           -2.365138            4.218277            4.601298
 C           -2.652528            4.390341            3.290155
 C           -2.933434            3.236261            2.438873
 N           -3.218584            3.440844            1.153145
 C           -3.498899            2.345171            0.339903
 C           -3.801591            2.593796           -1.011917
 C           -4.116200            1.535379           -1.866511
 C           -4.442538            1.746421           -3.249391
 C           -4.770407            0.685227           -4.055655
 C           -5.118647            0.820662           -5.460529
 C           -5.451372           -0.263781           -6.200205
 C           -5.467205           -1.592293           -5.614800
 C           -5.144071           -1.788631           -4.316353
 C           -4.775677           -0.656688           -3.465829
 N           -4.466988           -0.889361           -2.193846
 C           -4.127566            0.180243           -1.365273
 C           -2.513909           -2.094640            0.848018
 C           -1.292651           -1.490540            0.593115
 C           -0.072897           -2.093933            1.000706
 C            1.180795           -1.474810            0.749401
 C            2.362413           -2.021973            1.225346
 H            0.799779            5.698992            3.683552
 H            0.547850            3.624911            4.976261
 H            1.474671            1.451565            4.117997
 H            3.139067            4.384329           -0.342689
 H            1.945473            5.699159            1.463481
 H            4.282152            3.013684           -2.093019
 H            6.463302            0.573969           -5.432136
 H            7.282772           -1.603691           -6.379078
 H            6.959956           -3.709806           -5.155218
 H            5.817116           -3.742160           -2.933844
 H            4.685082           -2.461486           -1.084950
 H            5.762174           -1.455654            1.440826
 H            5.656011           -3.510948            2.784807
 H            3.487913           -4.705367            3.114376
 H            1.066419           -4.834227            2.737994
 H           -1.376811           -4.956212            2.392017
 H           -3.820478           -5.050996            2.102674
 H           -5.939332           -3.960696            1.356403
 H           -5.913763           -1.695878            0.392022
 H           -3.147369           -0.198194            2.641946
 H           -2.544525            0.788876            4.878716
 H           -2.088240            2.824885            6.254098
 H           -2.160254            5.067890            5.252764
 H           -2.690783            5.372409            2.815679
 H           -3.789996            3.623957           -1.375341
 H           -4.425588            2.766638           -3.635684
 H           -5.101396            1.823083           -5.887606
 H           -5.716048           -0.176558           -7.253663
 H           -5.748997           -2.423520           -6.261539
 H           -5.141135           -2.775453           -3.848251
 H           -1.250597           -0.529171            0.076775
 H            1.194473           -0.539255            0.186638

