94

 C            2.344535            1.716361            9.545679
 C            2.005928            0.305552            9.512200
 C            2.069664           -0.402391            8.361268
 C            2.483402            0.243713            7.116096
 N            2.531153           -0.484046            6.002843
 C            2.924125            0.126760            4.812404
 C            2.966803           -0.655690            3.643506
 C            3.360461           -0.090446            2.424500
 C            3.715424            1.309504            2.378042
 C            3.671473            2.093104            3.545815
 C            3.281963            1.524539            4.763159
 C            3.218245            2.275927            5.983360
 C            2.827237            1.667944            7.151924
 C            2.736030            2.365916            8.423575
 N            4.109802            1.928638            1.193761
 C            4.160372            1.209564            0.074461
 C            4.575355            1.872368           -1.160740
 C            4.647056            1.179755           -2.320501
 C            4.314255           -0.230713           -2.369947
 C            3.921444           -0.893064           -1.255801
 C            3.823055           -0.214247            0.026057
 C            3.433524           -0.840756            1.194456
 C            3.106519           -2.288344            1.211172
 C            4.061028           -3.194015            1.565594
 C            3.771078           -4.606773            1.573588
 C            2.538754           -5.060756            1.232746
 C            1.483953           -4.139576            0.848388
 C            0.223692           -4.596825            0.495481
 C           -0.803738           -3.694699            0.111715
 C           -2.098590           -4.149689           -0.252846
 C           -3.090293           -3.258842           -0.633718
 C           -4.415776           -3.721113           -1.005414
 C           -5.381209           -2.843738           -1.378540
 C           -5.111079           -1.427473           -1.416711
 C           -3.884507           -0.942537           -1.074328
 C           -3.633406            0.519864           -1.108409
 C           -3.829225            1.300764            0.014480
 C           -4.261283            0.770304            1.297154
 C           -4.444995            1.583563            2.364608
 C           -4.212989            3.011348            2.262643
 C           -3.806637            3.570058            1.099601
 C           -3.593827            2.742298           -0.086425
 N           -3.198061            3.335035           -1.211001
 C           -2.991484            2.557718           -2.348749
 C           -2.571579            3.209500           -3.522785
 C           -2.347564            2.478663           -4.694407
 C           -1.916316            3.090423           -5.918005
 C           -1.708373            2.324867           -7.039962
 C           -1.267762            2.874217           -8.311430
 C           -1.078010            2.071938           -9.385935
 C           -1.310201            0.641924           -9.300629
 C           -1.721416            0.067157           -8.147212
 C           -1.940959            0.880584           -6.951670
 N           -2.341480            0.279410           -5.833890
 C           -2.551024            1.049402           -4.690301
 C           -2.970380            0.398121           -3.515354
 C           -3.197449            1.127562           -2.342040
 C           -2.810195           -1.840584           -0.663541
 C           -1.549986           -1.386470           -0.304733
 C           -0.526044           -2.289689            0.089931
 C            0.767597           -1.832576            0.461096
 C            1.765064           -2.721172            0.833002
 H            2.271534            2.228459           10.504584
 H            1.698782           -0.160081           10.448882
 H            1.821271           -1.464213            8.306028
 H            2.684981           -1.712324            3.704674
 H            3.945009            3.149114            3.484274
 H            3.485444            3.333116            5.957392
 H            2.993590            3.424859            8.434761
 H            4.816985            2.934746           -1.091493
 H            4.954286            1.658378           -3.250723
 H            4.389292           -0.733228           -3.333647
 H            3.663554           -1.953919           -1.283753
 H            5.065045           -2.877252            1.850911
 H            4.571756           -5.288109            1.860446
 H            2.303506           -6.124764            1.236658
 H            0.005117           -5.664242            0.507679
 H           -2.302993           -5.219709           -0.229638
 H           -4.603637           -4.794064           -0.974233
 H           -6.380090           -3.177956           -1.657825
 H           -5.917492           -0.762071           -1.727388
 H           -4.427603           -0.306895            1.364959
 H           -4.768328            1.192497            3.328592
 H           -4.376532            3.614077            3.156401
 H           -3.621054            4.640504            0.991924
 H           -2.423135            4.291775           -3.502264
 H           -1.758586            4.169613           -5.932174
 H           -1.097815            3.949556           -8.361980
 H           -0.747256            2.471267          -10.344176
 H           -1.140947            0.050709          -10.200823
 H           -1.904783           -1.005158           -8.053654
 H           -3.112973           -0.687685           -3.535125
 H           -1.323973           -0.317582           -0.321716
 H            0.964392           -0.757857            0.446465

