96

 C            1.936358            6.115655           -2.915471
 C            2.188096            6.781850           -1.651589
 C            2.648636            6.098033           -0.578737
 C            2.903626            4.661499           -0.671216
 N            3.357739            4.018544            0.403413
 C            3.601425            2.647770            0.320440
 C            4.082381            1.985583            1.461952
 C            4.342560            0.608502            1.430602
 C            4.833480           -0.077351            2.589912
 C            5.093234           -1.428583            2.566589
 C            5.591443           -2.139579            3.736312
 C            5.839810           -3.470502            3.690136
 C            5.617547           -4.224280            2.472413
 C            5.153924           -3.612951            1.355868
 C            4.867097           -2.185037            1.345905
 C            4.393536           -1.545974            0.222345
 C            4.119514           -0.139102            0.219661
 C            3.643425            0.528348           -0.929259
 C            3.446474           -0.220620           -2.196158
 C            4.491888           -0.383258           -3.055344
 C            4.322126           -1.090285           -4.300476
 C            3.114573           -1.605297           -4.643013
 C            1.966918           -1.461353           -3.765251
 C            0.729264           -1.979636           -4.112353
 C           -0.393227           -1.832741           -3.255345
 C           -1.669153           -2.343808           -3.610087
 C           -2.761683           -2.185324           -2.771871
 C           -4.070139           -2.692901           -3.143315
 C           -5.139283           -2.525883           -2.324956
 C           -4.995621           -1.848600           -1.060365
 C           -3.787121           -1.359807           -0.660745
 C           -3.677068           -0.682608            0.656513
 C           -3.772045            0.723638            0.739477
 C           -3.899446            1.546862           -0.426710
 C           -3.994073            2.917227           -0.333891
 C           -4.115400            3.761908           -1.514096
 C           -4.205427            5.109087           -1.402411
 C           -4.184330            5.746474           -0.100911
 C           -4.074529            5.008808            1.030033
 C           -3.971504            3.557039            0.971288
 C           -3.851454            2.787558            2.105941
 C           -3.743627            1.360098            2.031439
 C           -3.614733            0.584489            3.192069
 C           -3.498931           -0.812446            3.107646
 N           -3.367370           -1.537488            4.291958
 C           -3.251032           -2.862803            4.230037
 C           -3.113948           -3.617962            5.474363
 C           -2.984602           -4.964441            5.446825
 C           -2.979824           -5.692874            4.192313
 C           -3.106680           -5.043936            3.009902
 C           -3.251081           -3.599091            2.965488
 C           -3.385407           -2.889905            1.795069
 C           -3.522162           -1.463398            1.819310
 C           -2.607005           -1.500150           -1.507623
 C           -1.362206           -1.003073           -1.150541
 C           -0.236583           -1.147658           -2.006901
 C            1.039267           -0.624148           -1.661397
 C            2.127471           -0.760681           -2.510552
 C            3.374024            1.911136           -0.899812
 C            2.883846            2.638658           -2.033026
 C            2.646910            3.990351           -1.945847
 C            2.153695            4.785955           -3.056683
 H            1.567451            6.723484           -3.740080
 H            1.991181            7.852750           -1.600051
 H            2.846018            6.572818            0.384085
 H            4.250267            2.562635            2.374195
 H            4.995979            0.503976            3.497799
 H            5.753360           -1.559370            4.644156
 H            6.210640           -4.012696            4.558935
 H            5.835622           -5.291030            2.491282
 H            4.980820           -4.165245            0.432777
 H            4.214061           -2.107993           -0.696987
 H            5.479513            0.017835           -2.825062
 H            5.190929           -1.191520           -4.950139
 H            2.968239           -2.139131           -5.581228
 H            0.601873           -2.508643           -5.056343
 H           -1.779357           -2.864015           -4.561139
 H           -4.159187           -3.206547           -4.099798
 H           -6.128029           -2.895854           -2.594280
 H           -5.882638           -1.740683           -0.435013
 H           -3.914568            1.058496           -1.403767
 H           -4.128701            3.267366           -2.484836
 H           -4.294914            5.750250           -2.277946
 H           -4.258494            6.832572           -0.069150
 H           -4.057040            5.473134            2.015510
 H           -3.832678            3.251546            3.092360
 H           -3.601606            1.056011            4.177423
 H           -3.120875           -3.043941            6.402763
 H           -2.879319           -5.543396            6.364515
 H           -2.870263           -6.775226            4.239533
 H           -3.103946           -5.577614            2.059717
 H           -3.385254           -3.398952            0.828006
 H           -1.230659           -0.484196           -0.197057
 H            1.149141           -0.103668           -0.706035
 H            2.701165            2.096307           -2.964141
 H            1.967779            4.271303           -3.999169

