96

 C            5.312989           -4.597113            6.181716
 C            4.818767           -3.738055            7.241344
 C            4.273150           -2.530975            6.966820
 C            4.166635           -2.062606            5.585546
 N            3.622280           -0.869557            5.354324
 C            3.512577           -0.421344            4.037752
 C            2.929859            0.833419            3.798383
 C            2.791541            1.317822            2.488586
 C            2.180045            2.587068            2.234449
 C            2.029493            3.063772            0.952332
 C            1.381989            4.341741            0.687909
 C            1.222693            4.796767           -0.577755
 C            1.709552            4.026183           -1.703136
 C            2.319815            2.831841           -1.512220
 C            2.503739            2.280341           -0.176200
 C            3.094126            1.046830            0.043828
 C            3.546247            0.223698           -1.106147
 C            4.842286            0.253260           -1.523058
 C            5.258558           -0.501036           -2.680366
 C            4.364619           -1.232571           -3.393197
 C            2.969062           -1.298955           -2.995691
 C            2.035636           -2.015842           -3.728916
 C            0.671551           -2.064876           -3.332409
 C           -0.317504           -2.718791           -4.113533
 C           -1.651593           -2.715700           -3.731864
 C           -2.674528           -3.320407           -4.565939
 C           -3.983133           -3.267128           -4.210054
 C           -4.385945           -2.639860           -2.976429
 C           -3.463586           -2.088307           -2.136369
 C           -3.907757           -1.502489           -0.845597
 C           -4.348253           -2.330722            0.174816
 C           -4.332425           -3.784207            0.069591
 C           -4.791576           -4.570966            1.072250
 C           -5.317419           -3.987905            2.288959
 C           -5.338187           -2.643815            2.452754
 C           -4.841106           -1.751332            1.413874
 C           -4.831416           -0.387240            1.590861
 C           -4.334872            0.488691            0.573484
 C           -4.272762            1.874039            0.788257
 C           -3.749845            2.726371           -0.197266
 N           -3.658960            4.091787            0.073602
 C           -3.136263            4.897463           -0.849217
 C           -3.031652            6.326661           -0.557077
 C           -2.495626            7.174727           -1.464721
 C           -2.014087            6.696224           -2.746717
 C           -2.091782            5.383616           -3.072471
 C           -2.656856            4.417256           -2.146771
 C           -2.760642            3.075031           -2.427422
 C           -3.310258            2.175712           -1.456997
 C           -3.410926            0.795716           -1.676026
 C           -3.883715           -0.070005           -0.675389
 C           -2.047478           -2.081994           -2.493608
 C           -1.082144           -1.470297           -1.708344
 C            0.275354           -1.412424           -2.120648
 C            1.241520           -0.684729           -1.375859
 C            2.555168           -0.588927           -1.806356
 C            3.256180            0.527667            1.377607
 C            3.840127           -0.726288            1.624069
 C            3.977549           -1.219009            2.927896
 C            4.560377           -2.495883            3.216857
 C            4.663489           -2.932110            4.516633
 C            5.239645           -4.214115            4.884516
 H            5.742045           -5.556024            6.469159
 H            4.903692           -4.103443            8.264891
 H            3.893712           -1.864241            7.743508
 H            2.581647            1.424568            4.648362
 H            1.826111            3.166769            3.087869
 H            1.024069            4.908636            1.547053
 H            0.724913            5.742898           -0.787590
 H            1.566068            4.440264           -2.699875
 H            2.688793            2.244510           -2.355030
 H            5.589226            0.854504           -1.004365
 H            6.309313           -0.451133           -2.964324
 H            4.664485           -1.787224           -4.281416
 H            2.337772           -2.548417           -4.629786
 H           -0.013740           -3.212912           -5.035697
 H           -2.355011           -3.808128           -5.486029
 H           -4.762765           -3.699655           -4.836194
 H           -5.448666           -2.628286           -2.731028
 H           -3.926623           -4.220139           -0.845343
 H           -4.775346           -5.657358            0.997142
 H           -5.686898           -4.664476            3.058128
 H           -5.723467           -2.185460            3.363064
 H           -5.196563            0.056516            2.517790
 H           -4.619108            2.305815            1.729917
 H           -3.404650            6.659514            0.413433
 H           -2.411014            8.242799           -1.263223
 H           -1.594590            7.429854           -3.433587
 H           -1.737147            5.009621           -4.032438
 H           -2.419052            2.669059           -3.380810
 H           -3.099530            0.388663           -2.641552
 H           -1.358073           -1.001864           -0.759456
 H            0.924315           -0.182167           -0.457780
 H            4.190866           -1.332303            0.785165
 H            4.914354           -3.107938            2.386193
 H            5.606643           -4.848643            4.078506

