96

 C            6.134578           -7.700083            0.798475
 C            5.644570           -6.789190            1.673540
 C            5.451345           -5.399863            1.281698
 C            4.953148           -4.459853            2.155540
 C            4.765478           -3.097415            1.753966
 C            4.252710           -2.136636            2.640996
 C            4.068927           -0.808041            2.236594
 C            3.540901            0.203530            3.104160
 C            3.379197            1.491233            2.650220
 C            2.841274            2.566367            3.466544
 C            2.699196            3.817834            2.970110
 C            3.084238            4.125573            1.599741
 C            2.911201            5.519908            1.125760
 C            3.703327            6.510459            1.625245
 C            3.575850            7.867654            1.154976
 C            2.668235            8.184859            0.197414
 C            1.796313            7.171152           -0.368277
 C            0.871482            7.486702           -1.352252
 C            0.011157            6.496377           -1.895476
 C           -0.926676            6.799293           -2.917975
 C           -1.762015            5.821686           -3.436302
 C           -2.711986            6.125684           -4.491636
 C           -3.534454            5.166579           -4.985949
 C           -3.486625            3.820728           -4.470043
 C           -2.608081            3.480205           -3.485166
 C           -2.583977            2.089700           -2.970445
 C           -1.462438            1.238782           -3.343202
 C           -1.402357           -0.048893           -2.930153
 C           -2.451481           -0.622500           -2.103978
 C           -2.445309           -1.926936           -1.669671
 C           -3.516510           -2.423468           -0.856627
 C           -3.564661           -3.741490           -0.384652
 C           -4.630652           -4.183596            0.416109
 C           -4.686161           -5.527368            0.909907
 C           -5.728509           -5.954985            1.701145
 C           -5.795836           -7.315543            2.216377
 C           -6.828503           -7.716876            2.996210
 C           -7.898190           -6.800590            3.337257
 C           -7.886798           -5.524289            2.883543
 C           -6.801667           -5.034982            2.043898
 C           -6.770482           -3.740552            1.576421
 C           -5.693029           -3.272013            0.755472
 C           -5.653217           -1.951985            0.283021
 C           -4.583877           -1.512375           -0.515725
 N           -4.585069           -0.191328           -0.962905
 C           -3.574845            0.235105           -1.718762
 C           -3.589557            1.615677           -2.191721
 C           -1.694970            4.470568           -2.924123
 C           -0.783016            4.166575           -1.925156
 C            0.091936            5.155468           -1.399399
 C            1.048466            4.843501           -0.396412
 C            1.901390            5.811352            0.112598
 C            3.595966            3.164543            0.788867
 C            3.764021            1.797615            1.270523
 N            4.255314            0.882937            0.436277
 C            4.417422           -0.426320            0.888115
 C            4.931734           -1.384627           -0.001739
 C            5.110437           -2.713629            0.409085
 C            5.629914           -3.708324           -0.482472
 C            5.799667           -5.012647           -0.076436
 C            6.323151           -6.035380           -0.971797
 C            6.481420           -7.314451           -0.554758
 H            6.283007           -8.741490            1.080334
 H            5.380315           -7.064083            2.693958
 H            4.689625           -4.736475            3.176361
 H            3.992910           -2.429709            3.658426
 H            3.270873           -0.073108            4.124027
 H            2.554833            2.324507            4.490387
 H            2.291522            4.630446            3.572078
 H            4.459682            6.301954            2.381824
 H            4.233391            8.619871            1.589464
 H            2.565277            9.203627           -0.174384
 H            0.793183            8.508146           -1.723440
 H           -0.979473            7.820640           -3.293790
 H           -2.737893            7.147378           -4.868484
 H           -4.250445            5.381165           -5.778596
 H           -4.173623            3.087224           -4.892513
 H           -0.682330            1.679096           -3.965569
 H           -0.567536           -0.695635           -3.202592
 H           -1.632291           -2.605092           -1.932270
 H           -2.762611           -4.433947           -0.641251
 H           -3.877254           -6.207485            0.643295
 H           -4.985765           -7.993426            1.950362
 H           -6.888639           -8.731221            3.387745
 H           -8.704339           -7.175892            3.966181
 H           -8.684231           -4.824022            3.130072
 H           -7.568875           -3.040213            1.823151
 H           -6.451430           -1.248752            0.530499
 H           -4.438566            2.233683           -1.889629
 H           -0.724212            3.153265           -1.521299
 H            1.101584            3.814426           -0.033597
 H            3.899430            3.368134           -0.241527
 H            5.189812           -1.077120           -1.017496
 H            5.889102           -3.402703           -1.496475
 H            6.580618           -5.729689           -1.985358
 H            6.871432           -8.086716           -1.216491

