86

 C           -9.722688            4.598380            0.504981
 C           -9.189256            3.563635           -0.167302
 C           -8.108190            2.877656            0.548706
 C           -7.369809            1.802669            0.146579
 C           -6.336063            1.280776            1.009539
 C           -6.092671            1.900824            2.283859
 C           -5.077155            1.402627            3.112057
 C           -4.293205            0.308754            2.718364
 C           -3.232390           -0.188767            3.564626
 C           -2.505807           -1.249328            3.136408
 S           -1.160893           -2.032234            3.955847
 C           -0.954883           -3.221655            2.670961
 C           -1.839755           -3.048212            1.666860
 C           -1.936648           -3.918080            0.480173
 C           -2.583594           -5.114181            0.572863
 C           -2.657820           -6.002783           -0.560223
 C           -2.068342           -5.673940           -1.737371
 C           -1.368555           -4.411116           -1.893073
 C           -0.755218           -4.070611           -3.089001
 C           -0.092352           -2.824184           -3.244194
 C            0.558083           -2.470580           -4.456210
 C            1.185873           -1.242706           -4.599746
 C            1.876338           -0.887017           -5.826705
 C            2.482840            0.319555           -5.959905
 C            2.434308            1.288962           -4.893388
 C            1.794527            1.006667           -3.723642
 C            1.719660            2.031035           -2.665471
 C            0.804837            3.022138           -2.623072
 S            1.045929            4.094622           -1.244396
 C            2.447498            3.195998           -0.677497
 C            3.219155            3.460481            0.404593
 C            4.323164            2.575289            0.698716
 C            5.154586            2.801820            1.804970
 C            6.213999            1.933797            2.104059
 C            6.454299            0.792449            1.263252
 C            5.629418            0.574800            0.149595
 C            4.569248            1.443166           -0.152248
 C            3.723562            1.215870           -1.299912
 C            2.690890            2.069329           -1.559016
 C            7.535672           -0.111759            1.577419
 C            8.321651            0.126120            2.667509
 C            9.456198           -0.659236            3.165392
 C           10.028192           -0.155848            4.273000
 S            9.234420            1.329434            4.814485
 C            8.067170            1.289020            3.499730
 C            7.066141            2.166559            3.248555
 C            1.162168           -0.291041           -3.511076
 C            0.545840           -0.634913           -2.317738
 C           -0.079130           -1.899973           -2.149611
 C           -0.691088           -2.270297           -0.921712
 C           -1.319041           -3.497353           -0.773144
 C           -2.756296           -1.913473            1.870723
 C           -3.747811           -1.458924            1.050874
 C           -4.544071           -0.323393            1.451935
 C           -5.560016            0.177544            0.623718
 C           -6.895865            3.032318            2.689716
 C           -7.852851            3.483687            1.843761
 S           -8.955092            4.833323            2.081343
 H          -10.518503            5.262209            0.208291
 H           -9.493397            3.227503           -1.151067
 H           -7.536615            1.323363           -0.816565
 H           -4.890960            1.874982            4.077098
 H           -3.046868            0.303816            4.517900
 H           -0.183545           -3.970612            2.758798
 H           -3.054682           -5.431063            1.503462
 H           -3.194426           -6.942180           -0.432799
 H           -2.103588           -6.341349           -2.597576
 H           -0.776110           -4.761098           -3.931746
 H            0.558670           -3.185909           -5.278226
 H            1.891357           -1.623189           -6.629492
 H            3.013637            0.594694           -6.870534
 H            2.917185            2.252826           -5.055183
 H           -0.007086            3.210959           -3.307674
 H            3.038490            4.310196            1.061173
 H            4.971187            3.665911            2.444321
 H            5.813790           -0.287344           -0.492609
 H            3.925428            0.358653           -1.942810
 H            7.699881           -0.972935            0.931960
 H            9.766304           -1.560035            2.649927
 H           10.866151           -0.534331            4.835700
 H            6.878509            3.037716            3.874078
 H            0.531853            0.070362           -1.482751
 H           -0.656461           -1.565435           -0.086960
 H           -3.953301           -1.935277            0.091807
 H           -5.747826           -0.298256           -0.339624
 H           -6.708088            3.488121            3.660487

