86

 C           -3.672367            0.044310            7.053452
 C           -3.815261            1.160812            6.318516
 C           -3.823532            0.927225            4.870637
 C           -3.948212            1.840713            3.864820
 C           -3.924433            1.398631            2.490684
 C           -3.771842            0.000981            2.192431
 C           -3.646159           -0.946242            3.277885
 C           -3.672644           -0.481428            4.550651
 S           -3.536163           -1.401766            6.043666
 C           -3.745644           -0.418864            0.854469
 C           -3.865832            0.497506           -0.200783
 C           -4.017790            1.895932            0.097928
 C           -4.045265            2.315260            1.436581
 C           -4.144313            2.855549           -0.972615
 C           -4.117187            2.430322           -2.268524
 C           -4.237064            3.227337           -3.493805
 C           -4.186631            2.502582           -4.625144
 S           -3.982848            0.775778           -4.300220
 C           -3.966518            1.018097           -2.560163
 C           -3.849187            0.071403           -1.589449
 C           -3.756651           -1.366192           -1.934340
 C           -4.902242           -2.092288           -2.070735
 C           -4.854712           -3.486241           -2.435029
 C           -3.665119           -4.103595           -2.645861
 C           -2.413756           -3.380579           -2.503859
 C           -1.195435           -4.007805           -2.712571
 C            0.027527           -3.300357           -2.570154
 C            1.279694           -3.935644           -2.780515
 C            2.469201           -3.237873           -2.639211
 C            3.750606           -3.887782           -2.849065
 C            4.912236           -3.201603           -2.705061
 C            4.898551           -1.805462           -2.346500
 C            3.721794           -1.146482           -2.147750
 C            3.749925            0.295975           -1.811645
 C            3.765228            1.242485           -2.789511
 S            3.708530            0.992562           -4.527589
 C            3.800466            2.726227           -4.866424
 C            3.866224            3.458607           -3.740705
 C            3.851023            2.662451           -2.509112
 C            3.918079            3.095622           -1.217204
 C            3.899424            2.136057           -0.139360
 C            3.970259            2.563205            1.195304
 C            3.956558            1.646415            2.256058
 C            3.870193            0.240787            1.969077
 C            3.856730           -0.706680            3.061478
 C            3.922519           -0.234694            4.330149
 S            3.918949           -1.153995            5.829990
 C            4.022391            0.302657            6.828496
 C            4.060439            1.421938            6.084933
 C            4.006921            1.182013            4.639052
 C            4.025298            2.096135            3.626281
 C            3.799216           -0.186657            0.635235
 C            3.812537            0.729779           -0.426716
 C            2.443575           -1.838151           -2.275756
 C            1.224229           -1.210559           -2.066957
 C           -0.002746           -1.915316           -2.205722
 C           -1.259309           -1.283736           -1.995808
 C           -2.449461           -1.981834           -2.137254
 H           -3.632859           -0.058730            8.125883
 H           -3.917168            2.165244            6.710437
 H           -4.063959            2.903289            4.068906
 H           -3.531594           -2.003305            3.041292
 H           -3.626994           -1.481912            0.628899
 H           -4.162169            3.375517            1.661678
 H           -4.262924            3.907389           -0.719808
 H           -4.355731            4.302019           -3.435994
 H           -4.252191            2.839082           -5.647509
 H           -5.881011           -1.637265           -1.916473
 H           -5.800459           -4.016825           -2.538851
 H           -3.612690           -5.154161           -2.928154
 H           -1.160145           -5.060287           -2.992136
 H            1.290569           -4.989161           -3.058197
 H            3.743898           -4.940993           -3.126262
 H            5.879991           -3.677273           -2.859692
 H            5.856086           -1.293363           -2.247887
 H            3.797247            3.060563           -5.891595
 H            3.928177            4.538467           -3.691481
 H            3.989569            4.153808           -0.973363
 H            4.036936            3.629574            1.411814
 H            3.792030           -1.769787            2.833255
 H            4.045265            0.202775            7.901700
 H            4.123075            2.432579            6.469071
 H            4.088751            3.164700            3.821892
 H            3.730267           -1.255866            0.418314
 H            1.191599           -0.153559           -1.792357
 H           -1.273066           -0.226544           -1.720342

