86

 C           -1.870251           -6.519166            2.173325
 C           -1.950240           -5.257842            2.631227
 C           -2.531847           -4.309981            1.674960
 C           -2.751631           -2.972721            1.833836
 C           -3.346532           -2.206102            0.764204
 C           -3.690824           -2.865868           -0.465302
 C           -4.269830           -2.131804           -1.509191
 C           -4.519511           -0.759035           -1.379009
 C           -5.125755           -0.015626           -2.461417
 C           -5.358312            1.307842           -2.289901
 S           -6.082284            2.440178           -3.424403
 C           -5.929746            3.799856           -2.301895
 C           -5.366678            3.431926           -1.138066
 C           -5.015814            2.009620           -1.066267
 C           -4.440132            1.329323           -0.032986
 C           -4.179400           -0.085866           -0.155435
 C           -3.606903           -0.826059            0.900699
 C           -3.320327           -0.152630            2.193696
 C           -4.300941           -0.078229            3.138046
 C           -4.062100            0.566812            4.405051
 C           -2.852365            1.114431            4.682820
 C           -1.772477            1.062450            3.713853
 C           -0.534565            1.618163            3.994631
 C            0.523658            1.563691            3.050479
 C            1.794661            2.127536            3.335671
 C            2.826982            2.066425            2.413568
 C            4.127378            2.641416            2.707569
 C            5.136468            2.576246            1.803219
 C            4.937811            1.932764            0.528555
 C            3.735490            1.378354            0.203429
 C            3.571666            0.720736           -1.118632
 C            3.843572           -0.658108           -1.245686
 C            4.223933           -1.461915           -0.107742
 C            4.497739           -2.788800           -0.269950
 C            4.901706           -3.766968            0.745532
 C            5.102402           -5.005958            0.264380
 S            4.814217           -5.095385           -1.479327
 C            4.401222           -3.389208           -1.587895
 C            4.041618           -2.683306           -2.686742
 C            3.748370           -1.274660           -2.540414
 C            3.380961           -0.503858           -3.651658
 C            3.100195            0.863181           -3.525198
 C            3.190891            1.493001           -2.236371
 C            2.898547            2.902376           -2.117800
 C            2.553472            3.623449           -3.223598
 C            2.228882            5.050818           -3.316038
 C            1.930230            5.465887           -4.559160
 S            2.015197            4.148130           -5.737209
 C            2.475159            2.968357           -4.516529
 C            2.729297            1.648110           -4.681997
 C            2.614376            1.420633            1.137025
 C            1.373563            0.871131            0.849004
 C            0.305640            0.925353            1.786619
 C           -0.970768            0.362848            1.510043
 C           -1.999543            0.417772            2.439282
 C           -3.446042           -4.283877           -0.610463
 C           -2.893390           -4.957145            0.427005
 S           -2.497381           -6.667952            0.525234
 H           -1.488870           -7.396769            2.669346
 H           -1.628142           -4.919982            3.608997
 H           -2.484418           -2.460929            2.759746
 H           -4.533814           -2.638445           -2.437997
 H           -5.378602           -0.541621           -3.380549
 H           -6.277328            4.772962           -2.608334
 H           -5.168427            4.087269           -0.298280
 H           -4.166841            1.834215            0.894914
 H           -5.288869           -0.504090            2.959249
 H           -4.881365            0.597152            5.122517
 H           -2.653555            1.606315            5.634341
 H           -0.356881            2.106764            4.952128
 H            1.947540            2.612517            4.299261
 H            4.259108            3.123168            3.675775
 H            6.117402            3.002785            2.010127
 H            5.778220            1.902856           -0.165856
 H            4.284246           -0.986996            0.872792
 H            5.014025           -3.466214            1.780362
 H            5.401093           -5.897167            0.791837
 H            3.965861           -3.133861           -3.675004
 H            3.315296           -0.975607           -4.632569
 H            2.958524            3.369029           -1.133339
 H            2.242927            5.673454           -2.429400
 H            1.660590            6.453265           -4.896924
 H            2.667013            1.155389           -5.650887
 H            1.200537            0.382672           -0.113565
 H           -1.131132           -0.120702            0.542817
 H           -3.714350           -4.768076           -1.547987

