78

 C           -4.478765           -4.542114           -1.360669
 C           -4.534736           -3.180919           -1.668221
 C           -4.193520           -2.221720           -0.701247
 C           -3.788969           -2.649649            0.593522
 C           -3.735229           -4.038459            0.895915
 C           -4.084235           -4.972771           -0.092384
 C           -3.318183           -4.448024            2.226399
 C           -2.978617           -3.536080            3.168554
 C           -3.021716           -2.110875            2.889994
 C           -2.672703           -1.156253            3.859061
 C           -2.746276            0.204321            3.566003
 C           -3.164385            0.646346            2.302459
 C           -3.276798            2.105585            2.061333
 C           -4.432234            2.753846            2.381085
 C           -4.563162            4.175329            2.178381
 C           -3.534871            4.898285            1.667230
 C           -2.281017            4.259582            1.309442
 C           -1.223527            4.991794            0.792137
 C           -0.002490            4.362394            0.433176
 C            1.084282            5.101770           -0.104107
 C            2.269884            4.476495           -0.457657
 C            3.379088            5.227610           -1.017905
 C            4.538470            4.608804           -1.355850
 C            4.696644            3.188717           -1.162372
 C            3.686235            2.437453           -0.641168
 C            3.885664            0.982601           -0.432093
 C            4.492365            0.552359            0.756868
 C            4.742748           -0.799918            0.983043
 C            4.392969           -1.757522            0.017435
 C            4.657138           -3.172837            0.211870
 C            4.315063           -4.087994           -0.726097
 C            3.665740           -3.692283           -1.964487
 C            3.300151           -4.630631           -2.942871
 C            2.676218           -4.213684           -4.120370
 C            2.406524           -2.862138           -4.346635
 C            2.761156           -1.899042           -3.388366
 C            3.395956           -2.313255           -2.184760
 C            3.765897           -1.335102           -1.187048
 C            3.504264            0.045351           -1.413139
 C            2.852251            0.433972           -2.652918
 C            2.499382           -0.483423           -3.584472
 C            2.414630            3.049841           -0.270141
 C            1.357342            2.319712            0.251163
 C            0.134316            2.947580            0.612033
 C           -0.955303            2.209364            1.148317
 C           -2.143439            2.832553            1.499104
 C           -3.499672           -0.285949            1.300137
 C           -3.433394           -1.675490            1.600275
 C           -3.913571            0.116713           -0.033960
 C           -4.238808           -0.796423           -0.979603
 H           -4.745059           -5.277241           -2.119862
 H           -4.843947           -2.862987           -2.662291
 H           -4.045235           -6.037468            0.130421
 H           -3.288778           -5.516993            2.436253
 H           -2.663900           -3.843062            4.165792
 H           -2.346396           -1.479191            4.846841
 H           -2.478474            0.938170            4.327544
 H           -5.283906            2.216200            2.797429
 H           -5.508851            4.642233            2.451161
 H           -3.617244            5.972674            1.509506
 H           -1.317924            6.068262            0.653087
 H            0.970743            6.177284           -0.236057
 H            3.244353            6.299380           -1.156078
 H            5.378042            5.160699           -1.776853
 H            5.647293            2.736988           -1.445164
 H            4.772111            1.289053            1.511308
 H            5.215622           -1.113500            1.912851
 H            5.142657           -3.469444            1.141429
 H            4.515373           -5.149388           -0.581381
 H            3.502051           -5.688033           -2.781882
 H            2.395368           -4.952040           -4.871133
 H            1.918855           -2.554792           -5.269983
 H            2.653242            1.497315           -2.803598
 H            2.005766           -0.187525           -4.510016
 H            1.452350            1.239812            0.391172
 H           -0.841985            1.130256            1.280359
 H           -3.948217            1.187411           -0.247024
 H           -4.542866           -0.489593           -1.980229

