110

 C            8.304653            7.250693            4.630296
 C            9.132743            6.140506            5.064091
 C            9.001380            4.917479            4.500136
 C            8.026045            4.675254            3.442708
 C            7.875998            3.442115            2.862146
 C            6.903589            3.214805            1.823839
 C            6.737398            1.964536            1.237055
 C            5.770517            1.751595            0.222510
 C            5.588456            0.479702           -0.376832
 C            4.633701            0.279688           -1.368247
 C            4.446310           -1.005650           -1.991011
 C            3.506393           -1.193898           -2.971517
 C            3.326496           -2.482949           -3.625525
 C            2.395722           -2.651448           -4.598215
 C            2.237422           -3.946364           -5.302928
 C            2.968974           -4.198091           -6.424608
 C            2.840798           -5.451831           -7.125250
 C            1.993683           -6.411430           -6.675127
 C            1.193595           -6.199021           -5.482215
 C            0.334458           -7.178660           -5.008747
 C           -0.453621           -6.963733           -3.847244
 C           -1.327900           -7.964085           -3.346112
 C           -2.103964           -7.737746           -2.219777
 C           -2.994645           -8.760354           -1.701092
 C           -3.762400           -8.525363           -0.607120
 C           -3.711801           -7.250713            0.065210
 C           -2.886897           -6.260045           -0.376070
 C           -2.859648           -4.957382            0.331655
 C           -3.756869           -3.979615            0.048933
 C           -3.752887           -2.720223            0.780906
 C           -4.655691           -1.724315            0.510471
 C           -4.659781           -0.492390            1.257326
 C           -5.575353            0.520225            0.992085
 C           -5.575578            1.725303            1.739398
 C           -6.500970            2.765408            1.473247
 C           -6.488195            3.947251            2.207250
 C           -7.417400            5.015309            1.940972
 C           -7.391170            6.181276            2.662361
 C           -8.321837            7.273341            2.399122
 C           -8.278321            8.418592            3.118783
 C           -7.301361            8.592963            4.177812
 C           -6.414328            7.613242            4.468663
 C           -6.409804            6.355991            3.729173
 C           -5.517564            5.353233            4.009587
 C           -5.517730            4.119623            3.266225
 C           -4.610037            3.101312            3.539443
 C           -4.610633            1.896790            2.792836
 C           -3.681021            0.858442            3.055096
 C           -3.685539           -0.317390            2.312724
 C           -2.741259           -1.376619            2.564237
 C           -2.759333           -2.537139            1.835103
 C           -1.808739           -3.617240            2.077949
 C           -1.853062           -4.766308            1.366899
 C           -2.033174           -6.462308           -1.541678
 C           -1.171810           -5.484644           -2.016488
 C           -0.365101           -5.707224           -3.165088
 C            0.526866           -4.714941           -3.654799
 C            1.302222           -4.937902           -4.782616
 C            1.535001           -1.548513           -5.003040
 C            1.662926           -0.331020           -4.428841
 C            2.659829           -0.081568           -3.393013
 C            2.817110            1.153597           -2.819580
 C            3.805671            1.385863           -1.797151
 C            3.979689            2.638681           -1.218824
 C            4.951396            2.853074           -0.208648
 C            5.132873            4.124705            0.390517
 C            6.080111            4.322347            1.389906
 C            6.264195            5.607047            2.014859
 C            7.193613            5.792348            3.005768
 C            7.383968            7.086035            3.652360
 H            8.453099            8.211968            5.119809
 H            9.856839            6.330309            5.855023
 H            9.615784            4.074924            4.815405
 H            8.490800            2.598719            3.175509
 H            7.355629            1.126085            1.557287
 H            6.213290           -0.350185           -0.047420
 H            5.080011           -1.828251           -1.659916
 H            3.972056           -3.302592           -3.309662
 H            3.669142           -3.461939           -6.818770
 H            3.445288           -5.598043           -8.019573
 H            1.887796           -7.364093           -7.192073
 H            0.251855           -8.133197           -5.527577
 H           -1.379840           -8.920951           -3.864615
 H           -3.023034           -9.717257           -2.220211
 H           -4.434636           -9.283877           -0.208111
 H           -4.353262           -7.105893            0.934164
 H           -4.510783           -4.108213           -0.727742
 H           -5.398105           -1.842726           -0.278523
 H           -6.310316            0.395555            0.197238
 H           -7.230707            2.627759            0.675656
 H           -8.144740            4.868693            1.142951
 H           -9.049389            7.128293            1.601455
 H           -8.968053            9.239459            2.928508
 H           -7.311467            9.535358            4.723211
 H           -5.675445            7.729654            5.260695
 H           -4.780886            5.467903            4.804514
 H           -3.879585            3.223542            4.339055
 H           -2.952844            0.994689            3.854653
 H           -2.007357           -1.225576            3.355948
 H           -1.062107           -3.458420            2.856339
 H           -1.150644           -5.581346            1.540400
 H           -1.103793           -4.519288           -1.509569
 H            0.593691           -3.763755           -3.121627
 H            0.796172           -1.746902           -5.779135
 H            1.026492            0.504766           -4.719990
 H            2.194074            1.994372           -3.124494
 H            3.362057            3.477135           -1.540510
 H            4.512428            4.956079            0.056478
 H            5.637037            6.431550            1.676515
 H            6.755076            7.909643            3.316449

