86

 C           -1.419277            5.877496            3.087007
 C           -2.307742            5.374062            2.192956
 C           -2.428685            3.940972            1.988227
 C           -3.319446            3.406063            1.071019
 C           -3.432570            2.000478            0.895783
 C           -4.330054            1.439118           -0.050278
 C           -4.444557            0.065559           -0.202116
 C           -5.351232           -0.510643           -1.178581
 C           -5.464288           -1.856186           -1.313886
 C           -4.694199           -2.745851           -0.480604
 C           -3.828101           -2.256730            0.451308
 C           -3.082605           -3.200791            1.321124
 C           -3.701242           -3.752197            2.402968
 C           -3.020773           -4.716769            3.231322
 C           -1.756116           -5.112004            2.938128
 C           -1.046853           -4.554717            1.800019
 C            0.244053           -4.954420            1.489253
 C            0.946861           -4.380556            0.396606
 C            2.265339           -4.786614            0.058850
 C            2.956290           -4.183788           -0.981524
 C            4.298780           -4.603907           -1.341842
 C            4.977526           -3.983511           -2.340077
 C            4.386360           -2.882468           -3.059530
 C            3.126117           -2.453653           -2.767417
 C            2.548012           -1.302245           -3.503258
 C            2.405522           -0.018378           -2.821636
 C            2.783228            0.171871           -1.500965
 C            2.625914            1.430554           -0.861604
 C            3.002017            1.627478            0.494643
 C            2.845505            2.861044            1.107364
 C            3.222772            3.081314            2.492642
 C            3.069323            4.299149            3.072180
 C            2.524418            5.408099            2.322278
 C            2.152150            5.251115            1.026455
 C            2.294388            3.968555            0.359203
 C            1.919737            3.787009           -0.962941
 C            2.072781            2.526228           -1.600479
 C            1.692922            2.323688           -2.953707
 C            1.848830            1.088995           -3.565871
 C            1.464387            0.879576           -4.950243
 C            1.621556           -0.331987           -5.540826
 C            2.172581           -1.443491           -4.805682
 C            2.338408           -3.110717           -1.728341
 C            1.035163           -2.739071           -1.434136
 C            0.310880           -3.359604           -0.381307
 C           -1.024154           -2.982189           -0.073421
 C           -1.708125           -3.558762            0.985785
 C           -3.650605           -0.818756            0.621570
 C           -2.759542           -0.279479            1.536982
 C           -2.622842            1.126105            1.691468
 C           -1.701893            1.687228            2.617003
 C           -1.590373            3.060396            2.770577
 C           -0.646798            3.651650            3.703093
 C           -0.566275            4.998205            3.854000
 H           -1.322531            6.949338            3.250869
 H           -2.954778            6.024004            1.605816
 H           -3.949042            4.060150            0.469157
 H           -4.932067            2.110102           -0.662144
 H           -5.932503            0.173929           -1.794892
 H           -6.137193           -2.301480           -2.045248
 H           -4.828255           -3.818859           -0.617271
 H           -4.725012           -3.484634            2.664784
 H           -3.559208           -5.117298            4.089336
 H           -1.236808           -5.852073            3.545547
 H            0.741185           -5.716601            2.088207
 H            2.729761           -5.586167            0.634952
 H            4.736853           -5.432092           -0.786446
 H            5.983771           -4.290900           -2.622018
 H            4.981319           -2.400195           -3.835082
 H            3.207575           -0.654433           -0.925662
 H            3.416389            0.786112            1.050088
 H            3.632276            2.235958            3.043883
 H            3.350538            4.475490            4.108763
 H            2.423562            6.365186            2.830788
 H            1.734864            6.076064            0.450549
 H            1.498342            4.613832           -1.533581
 H            1.271412            3.161096           -3.508903
 H            1.048291            1.727178           -5.493332
 H            1.339145           -0.501103           -6.579010
 H            2.275331           -2.397598           -5.322140
 H            0.546903           -1.946320           -2.007237
 H           -1.506934           -2.217742           -0.688064
 H           -2.144325           -0.936513            2.156054
 H           -1.076550            1.016001            3.205820
 H           -0.005365            2.976052            4.267753
 H            0.139583            5.450896            4.547726

