98

 C            4.106198           -5.390750            2.020006
 C            3.896210           -5.479373            0.589836
 C            3.778622           -4.359379           -0.163261
 C            3.856740           -3.033006            0.434477
 C            4.057596           -2.946800            1.871421
 C            4.181586           -4.184050            2.630623
 C            4.134643           -1.717153            2.484606
 C            4.014254           -0.504033            1.734105
 C            4.095623            0.749551            2.361317
 C            3.980863            1.939192            1.626592
 C            4.079094            3.225010            2.251342
 C            3.970206            4.384692            1.517147
 C            4.081422            5.700008            2.133233
 C            3.970784            6.829448            1.393145
 C            3.734614            6.759378           -0.034864
 C            3.622373            5.562170           -0.658812
 C            3.738659            4.314399            0.083185
 C            3.637520            3.088661           -0.535727
 C            3.763387            1.869415            0.206251
 C            3.684533            0.615474           -0.419365
 C            3.811684           -0.576688            0.311354
 C            3.750391           -1.873942           -0.314680
 C            3.606063           -1.939223           -1.791273
 C            4.718914           -1.981579           -2.577194
 C            4.607792           -2.033805           -4.013752
 C            3.390984           -2.041708           -4.614100
 C            2.171849           -2.001092           -3.826387
 C            0.924431           -2.007984           -4.431377
 C           -0.265935           -1.967672           -3.657997
 C           -1.550086           -1.967435           -4.263979
 C           -2.704037           -1.926422           -3.496367
 C           -4.018635           -1.921012           -4.112763
 C           -5.142763           -1.881753           -3.353760
 C           -5.057871           -1.845217           -1.914934
 C           -3.848516           -1.845906           -1.285972
 C           -3.791498           -1.803973            0.197438
 C           -3.747334           -0.517439            0.846748
 C           -3.692796            0.685275            0.124693
 C           -3.669882            1.929014            0.775272
 C           -3.615676            3.159118            0.042824
 C           -3.619878            4.375128            0.688978
 C           -3.574193            5.634014           -0.041704
 C           -3.592657            6.821531            0.610358
 C           -3.655016            6.869538            2.057315
 C           -3.691393            5.728675            2.787097
 C           -3.673799            4.423179            2.141358
 C           -3.708210            3.252123            2.864834
 C           -3.706833            1.976533            2.212572
 C           -3.745207            0.775477            2.936965
 C           -3.763159           -0.467560            2.284806
 C           -3.801623           -1.692519            3.024897
 C           -3.822594           -2.911833            2.387402
 C           -3.860666           -4.160894            3.136463
 C           -3.884179           -5.357285            2.502098
 C           -3.869150           -5.422984            1.055404
 C           -3.837878           -4.291251            0.311314
 C           -3.815564           -2.974864            0.935249
 C           -2.608411           -1.886671           -2.054037
 C           -1.358488           -1.887756           -1.453660
 C           -0.168566           -1.925258           -2.229474
 C            1.115860           -1.918744           -1.621293
 C            2.272838           -1.952077           -2.384631
 H            4.199261           -6.321368            2.577900
 H            3.835041           -6.472562            0.147800
 H            3.616615           -4.416247           -1.241350
 H            4.336628           -4.097613            3.705240
 H            4.291622           -1.641917            3.560305
 H            4.250827            0.799075            3.438523
 H            4.245247            3.261583            3.327310
 H            4.257526            5.737129            3.207529
 H            4.054610            7.817333            1.843410
 H            3.651290            7.697836           -0.580502
 H            3.442878            5.491860           -1.730978
 H            3.458456            3.021933           -1.608917
 H            3.519753            0.569122           -1.498335
 H            5.717399           -1.974686           -2.139843
 H            5.529854           -2.064003           -4.593099
 H            3.290836           -2.078592           -5.698025
 H            0.841866           -2.045477           -5.516935
 H           -1.615659           -2.000206           -5.350852
 H           -4.066571           -1.949014           -5.200516
 H           -6.134903           -1.875463           -3.803562
 H           -5.987819           -1.816357           -1.346931
 H           -3.666451            0.655736           -0.967034
 H           -3.570491            3.108919           -1.045158
 H           -3.525242            5.580380           -1.128626
 H           -3.560795            7.768218            0.073624
 H           -3.670838            7.850335            2.530046
 H           -3.736429            5.749033            3.875267
 H           -3.740168            3.272044            3.953527
 H           -3.761257            0.808117            4.025817
 H           -3.815048           -1.634502            4.112971
 H           -3.868672           -4.091685            4.223425
 H           -3.914118           -6.296572            3.052383
 H           -3.881644           -6.408776            0.593265
 H           -3.823013           -4.330975           -0.779544
 H           -1.272280           -1.857715           -0.364194
 H            1.178051           -1.884635           -0.530303

