98

 C           -3.911067            7.420724            4.774136
 C           -3.410640            6.622488            5.875120
 C           -3.231215            5.287003            5.735055
 C           -3.533033            4.616199            4.478043
 C           -3.357672            3.260008            4.316631
 C           -3.655517            2.615086            3.072459
 C           -3.484482            1.232424            2.900468
 C           -3.777044            0.611433            1.676372
 C           -3.615301           -0.800222            1.492265
 C           -3.905829           -1.401041            0.287944
 C           -3.764092           -2.835579            0.094182
 C           -4.062889           -3.412600           -1.098440
 C           -3.967811           -4.878367           -1.299975
 C           -5.072344           -5.657005           -1.126079
 C           -5.008058           -7.084809           -1.317975
 C           -3.844125           -7.682005           -1.677937
 C           -2.637521           -6.900074           -1.880263
 C           -1.445419           -7.502110           -2.251785
 C           -0.266591           -6.735382           -2.448701
 C            0.960645           -7.341331           -2.826218
 C            2.105404           -6.582713           -3.015641
 C            3.362860           -7.200615           -3.396498
 C            4.478852           -6.451098           -3.580584
 C            4.440384           -5.020471           -3.403169
 C            3.285232           -4.391661           -3.046805
 C            3.269632           -2.918129           -2.884246
 C            3.669743           -2.323891           -1.730233
 C            3.689875           -0.875197           -1.602005
 C            4.096024           -0.255694           -0.441205
 C            4.129764            1.172611           -0.333833
 C            4.541510            1.813210            0.845300
 C            4.580498            3.213494            0.935454
 C            4.995401            3.878648            2.134900
 C            5.035711            5.252852            2.212222
 C            5.449805            5.944172            3.425554
 C            5.484027            7.297363            3.481974
 C            5.110217            8.094975            2.331375
 C            4.716466            7.503942            1.177723
 C            4.655639            6.053512            1.059387
 C            4.250615            5.434266           -0.101900
 C            4.195809            4.006105           -0.202705
 C            3.777494            3.365486           -1.379744
 C            3.733699            1.965394           -1.467937
 C            3.304254            1.299826           -2.662246
 C            3.275712           -0.074163           -2.742716
 C            2.839387           -0.766417           -3.947702
 C            2.832929           -2.118188           -4.017505
 C            2.056988           -5.149168           -2.832409
 C            0.862722           -4.549202           -2.462166
 C           -0.316816           -5.316128           -2.261796
 C           -1.545510           -4.710774           -1.882614
 C           -2.691336           -5.467641           -1.689687
 C           -4.513905           -2.605233           -2.220695
 C           -4.663070           -1.266370           -2.088180
 C           -4.377035           -0.595561           -0.827260
 C           -4.541988            0.762173           -0.671139
 C           -4.255217            1.406969            0.576301
 C           -4.430103            2.788738            0.749163
 C           -4.142749            3.409241            1.975426
 C           -4.321682            4.817799            2.166781
 C           -4.031688            5.417713            3.372000
 C           -4.207409            6.848171            3.582554
 H           -4.037549            8.489025            4.942072
 H           -3.186182            7.133814            6.809989
 H           -2.855767            4.672856            6.552591
 H           -2.984890            2.647147            5.136964
 H           -3.117402            0.631133            3.731818
 H           -3.256450           -1.391321            2.334633
 H           -3.416358           -3.429241            0.939803
 H           -6.029132           -5.222919           -0.836407
 H           -5.920496           -7.659240           -1.163897
 H           -3.777830           -8.759005           -1.825637
 H           -1.398768           -8.580333           -2.399484
 H            0.989341           -8.421238           -2.966221
 H            3.374481           -8.281839           -3.526945
 H            5.428333           -6.901896           -3.866068
 H            5.361185           -4.460387           -3.565005
 H            3.989898           -2.912918           -0.870784
 H            4.403642           -0.844168            0.422866
 H            4.835585            1.213139            1.705964
 H            5.278605            3.266223            2.990555
 H            5.727866            5.330291            4.281263
 H            5.790081            7.823729            4.384807
 H            5.158205            9.178138            2.431149
 H            4.432930            8.090542            0.304734
 H            3.961273            6.022183           -0.972494
 H            3.481034            3.965154           -2.239951
 H            2.998367            1.911733           -3.510535
 H            2.518177           -0.153330           -4.789603
 H            2.507649           -2.648023           -4.912561
 H            0.813618           -3.467330           -2.317440
 H           -1.573308           -3.627332           -1.744050
 H           -4.723245           -3.118694           -3.158767
 H           -5.001274           -0.648120           -2.919515
 H           -4.896227            1.376736           -1.498360
 H           -4.794942            3.389999           -0.083140
 H           -4.694768            5.406770            1.329440
 H           -4.584316            7.435535            2.746224

