98

 C           -7.552381            6.025114           -1.218823
 C           -7.608971            5.164536           -2.383243
 C           -7.036269            3.936830           -2.364157
 C           -6.348878            3.446986           -1.177308
 C           -5.766419            2.199957           -1.136243
 C           -5.095159            1.732106            0.039979
 C           -4.508651            0.458139            0.094704
 C           -3.857438            0.001579            1.251694
 C           -3.779272            0.868590            2.397615
 C           -4.365551            2.143214            2.344424
 C           -5.026994            2.592061            1.191252
 C           -5.640710            3.885183            1.127523
 C           -6.286933            4.312937           -0.010627
 C           -6.922654            5.621132           -0.089373
 C           -3.107417            0.408889            3.575301
 C           -2.536400           -0.842203            3.629261
 C           -1.857346           -1.316394            4.827772
 C           -1.300811           -2.550272            4.874347
 C           -1.363836           -3.430068            3.725630
 C           -1.986031           -3.039289            2.587535
 C           -2.611040           -1.727785            2.479050
 C           -3.267296           -1.310969            1.333874
 C           -3.416163           -2.225793            0.173879
 C           -4.521137           -3.018479            0.080625
 C           -4.690682           -3.923250           -1.028762
 C           -3.750086           -4.006523           -2.003135
 C           -2.554597           -3.183928           -1.955857
 C           -1.589361           -3.263093           -2.947541
 C           -0.428080           -2.447183           -2.906125
 C            0.569762           -2.524092           -3.913034
 C            1.698701           -1.721090           -3.863847
 C            2.728833           -1.809956           -4.883040
 C            3.832655           -1.022873           -4.826855
 C            4.004230           -0.073639           -3.755504
 C            3.064770            0.052434           -2.775799
 C            3.267233            1.046966           -1.691818
 C            2.801598            2.343028           -1.830382
 C            2.043718            2.780312           -2.995190
 C            1.613148            4.059132           -3.114898
 C            1.895289            5.034897           -2.082318
 C            2.589163            4.682936           -0.973694
 C            3.073028            3.321161           -0.789837
 C            3.780749            2.956230            0.332701
 C            4.258466            1.617900            0.507058
 C            4.981107            1.246281            1.651978
 C            5.449967           -0.065233            1.822264
 C            6.196129           -0.455971            2.981321
 C            6.648046           -1.747317            3.137009
 C            7.411669           -2.159854            4.306840
 C            7.845428           -3.436015            4.443482
 C            7.559826           -4.428057            3.426693
 C            6.855753           -4.098126            2.317209
 C            6.365815           -2.741749            2.114250
 C            5.652479           -2.385973            0.991468
 C            5.176898           -1.047070            0.806999
 C            4.455830           -0.673565           -0.337832
 C            3.994439            0.640418           -0.515480
 C            1.865451           -0.778586           -2.779867
 C            0.896858           -0.698957           -1.790629
 C           -0.259023           -1.525158           -1.822753
 C           -1.251381           -1.460898           -0.807322
 C           -2.379740           -2.265595           -0.852553
 H           -8.032347            7.000118           -1.287594
 H           -8.125591            5.540048           -3.264968
 H           -7.069966            3.278539           -3.231537
 H           -5.804925            1.539728           -2.002802
 H           -4.561261           -0.189107           -0.783905
 H           -4.306126            2.795560            3.215048
 H           -5.585143            4.524902            2.007587
 H           -6.871349            6.257303            0.793361
 H           -3.060602            1.077329            4.434746
 H           -1.817402           -0.640157            5.680830
 H           -0.791648           -2.915112            5.765224
 H           -0.892999           -4.408254            3.810419
 H           -2.034420           -3.693695            1.714909
 H           -5.301754           -2.987981            0.840869
 H           -5.593917           -4.531611           -1.053537
 H           -3.862514           -4.685499           -2.847016
 H           -1.712195           -3.957222           -3.778055
 H            0.435149           -3.231052           -4.730798
 H            2.583308           -2.530599           -5.686372
 H            4.615150           -1.082036           -5.582372
 H            4.905663            0.539266           -3.753329
 H            1.831714            2.036571           -3.765878
 H            1.043953            4.389789           -3.982247
 H            1.529301            6.049849           -2.230087
 H            2.808643            5.402553           -0.185897
 H            3.993752            3.684396            1.115067
 H            5.181275            1.990107            2.422529
 H            6.399801            0.298393            3.740450
 H            7.618291           -1.403373            5.062882
 H            8.417830           -3.754628            5.313339
 H            7.930400           -5.438975            3.588345
 H            6.632914           -4.832632            1.544118
 H            5.433852           -3.120318            0.216056
 H            4.249795           -1.424329           -1.104358
 H            1.012782            0.007567           -0.964440
 H           -1.109846           -0.759585            0.019322

