98

 C          -10.136825           -4.451719           -2.591380
 C          -10.715547           -3.162185           -2.810339
 C          -10.109854           -2.037875           -2.318037
 C           -8.884586           -2.136506           -1.575205
 C           -8.238070           -0.985980           -1.052433
 C           -7.056311           -1.083320           -0.333788
 C           -6.476336           -2.383036           -0.121101
 C           -7.097144           -3.514800           -0.625526
 C           -8.308615           -3.418631           -1.358354
 C           -8.970013           -4.578665           -1.887207
 C           -5.231311           -2.488716            0.632108
 C           -4.622485           -1.402451            1.146734
 C           -5.168885           -0.058947            0.974921
 C           -4.535340            1.054534            1.522773
 C           -3.311829            0.895612            2.349839
 C           -3.422642            0.683872            3.691516
 C           -2.248621            0.531949            4.515053
 C           -1.007714            0.595929            3.969649
 C           -0.829659            0.819522            2.546001
 C            0.433927            0.887302            1.978988
 C            0.603201            1.110751            0.586607
 C            1.893023            1.183012           -0.005401
 C            2.048109            1.406151           -1.364600
 C            3.359311            1.487809           -2.001247
 C            4.581916            1.327871           -1.173010
 C            5.172297            0.075551           -1.017140
 C            4.582613           -1.119762           -1.614165
 C            5.149129           -2.334900           -1.480370
 C            6.389280           -2.522765           -0.735162
 C            6.966058           -3.778185           -0.625130
 C            8.172172           -3.967425            0.098379
 C            8.788367           -5.258938            0.222432
 C            9.951136           -5.408211            0.928885
 C           10.570523           -4.280318            1.553593
 C           10.008378           -3.036596            1.452613
 C            8.788727           -2.845880            0.718589
 C            8.187108           -1.565973            0.597186
 C            7.010678           -1.383352           -0.113482
 C            6.385812           -0.057450           -0.253631
 C            6.946534            1.068015            0.327891
 C            6.350218            2.347901            0.190146
 C            6.937327            3.510437            0.796632
 C            6.346128            4.737380            0.662985
 C            5.134860            4.876765           -0.083026
 C            4.557260            3.788304           -0.678538
 C            5.152094            2.485833           -0.561936
 C            3.470752            1.713761           -3.340554
 C            2.297028            1.876184           -4.162393
 C            1.055785            1.806103           -3.618481
 C            0.877030            1.567862           -2.197292
 C           -0.386782            1.495600           -1.631179
 C           -0.556306            1.267741           -0.239517
 C           -1.846175            1.192953            0.352231
 C           -2.000947            0.974941            1.712302
 C           -5.062561            2.366711            1.324107
 C           -4.422223            3.540304            1.850095
 C           -4.959762            4.781947            1.643949
 C           -6.173503            4.932935            0.904215
 C           -6.807248            3.836142            0.386434
 C           -6.263076            2.520592            0.578919
 C           -6.904105            1.375327            0.040502
 C           -6.384864            0.103772            0.221290
 H          -10.645622           -5.324806           -2.996938
 H          -11.644390           -3.098418           -3.374677
 H          -10.541975           -1.051353           -2.478168
 H           -8.697094           -0.010822           -1.227964
 H           -6.658792           -4.499129           -0.462466
 H           -8.521406           -5.555576           -1.714156
 H           -4.812566           -3.487429            0.760365
 H           -3.689728           -1.493852            1.709356
 H           -4.398534            0.624713            4.174045
 H           -2.395507            0.366360            5.581579
 H           -0.112067            0.483183            4.579521
 H            1.321579            0.770161            2.601182
 H            2.770007            1.059430            0.634385
 H            3.652927           -0.991147           -2.174532
 H            4.698218           -3.222745           -1.924777
 H            6.496374           -4.640437           -1.097801
 H            8.308917           -6.110578           -0.257397
 H           10.425807           -6.383052            1.029403
 H           11.494735           -4.435741            2.107737
 H           10.471514           -2.170990            1.923765
 H            8.676712           -0.717082            1.079142
 H            7.868061            0.985974            0.908135
 H            7.860631            3.390243            1.360950
 H            6.782844            5.624686            1.118968
 H            4.684569            5.864762           -0.165146
 H            3.632488            3.889149           -1.249491
 H            4.446696            1.777423           -3.822339
 H            2.444320            2.056352           -5.226555
 H            0.160509            1.926785           -4.227289
 H           -1.274271            1.615414           -2.252992
 H           -2.723345            1.311999           -0.288064
 H           -3.495794            3.419313            2.414459
 H           -4.475122            5.674304            2.037119
 H           -6.577590            5.934344            0.763828
 H           -7.732965            3.936587           -0.177738
 H           -7.826980            1.516988           -0.525883

