90

 C          -12.768976           -0.864685            1.051521
 C          -12.090297           -2.040767            0.681261
 C          -10.798096           -1.974891            0.164065
 C          -10.161320           -0.703896            0.012510
 C          -10.855037            0.475161            0.384435
 C          -12.166974            0.375075            0.906022
 C          -10.194549            1.748354            0.217580
 C           -8.930302            1.821491           -0.279247
 C           -8.197962            0.636171           -0.661334
 C           -8.820462           -0.614603           -0.515187
 C           -8.125398           -1.823907           -0.891257
 C           -6.846532           -1.749617           -1.395869
 C           -6.192525           -0.489352           -1.558087
 C           -4.870169           -0.423686           -2.099012
 C           -4.240394            0.789272           -2.262481
 C           -2.883186            0.868548           -2.855455
 C           -2.735261            0.971015           -4.205840
 C           -1.424080            1.037881           -4.803276
 C           -0.309012            0.994524           -4.031012
 C           -0.406642            0.884088           -2.586583
 C            0.727234            0.831051           -1.789750
 C            0.627374            0.736212           -0.376229
 C            1.781531            0.677798            0.450964
 C            1.673575            0.602605            1.830948
 C            2.838219            0.535270            2.708054
 C            4.197939            0.531312            2.115904
 C            4.798676            1.772579            1.742862
 C            6.071450            1.796324            1.231326
 C            6.823227            0.591798            1.058163
 C            6.216372           -0.641051            1.413321
 C            4.889352           -0.646748            1.946737
 C            6.933824           -1.865474            1.245748
 C            8.218783           -1.870885            0.751318
 C            8.970456           -3.111486            0.579691
 C           10.230218           -3.115845            0.096246
 C           10.904546           -1.878156           -0.281062
 C           10.203931           -0.642014           -0.123282
 C           10.841302            0.573802           -0.477413
 C           12.161218            0.544339           -0.987521
 C           12.825469           -0.662480           -1.139162
 C           12.202943           -1.874509           -0.786703
 C           10.116144            1.810629           -0.305791
 C            8.844786            1.815665            0.178144
 C            8.169288            0.591715            0.542663
 C            8.855370           -0.624890            0.391989
 C            2.688177            0.470810            4.060777
 C            1.376584            0.466382            4.660788
 C            0.262651            0.519897            3.887866
 C            0.362299            0.584732            2.440792
 C           -0.771127            0.628124            1.643217
 C           -0.670767            0.701374            0.228451
 C           -1.825106            0.742699           -0.598967
 C           -1.717385            0.829722           -1.978274
 C           -4.901460            1.995638           -1.877687
 C           -6.170383            1.950828           -1.358024
 C           -6.858368            0.708375           -1.188486
 C           -8.812837           -3.101951           -0.725486
 C          -10.066796           -3.173699           -0.231896
 H          -13.778448           -0.939009            1.455478
 H          -12.584541           -3.003212            0.803137
 H          -12.698244            1.281298            1.192064
 H          -10.740313            2.648158            0.500826
 H           -8.436240            2.787317           -0.403352
 H           -6.308317           -2.652383           -1.683123
 H           -4.371515           -1.350603           -2.382908
 H           -3.600379            1.003075           -4.868056
 H           -1.364520            1.121028           -5.887727
 H            0.688009            1.042429           -4.467207
 H            1.717859            0.862907           -2.243796
 H            2.765310            0.691386           -0.022927
 H            4.228718            2.691523            1.877094
 H            6.533275            2.744506            0.948628
 H            4.436803           -1.600075            2.220011
 H            6.439226           -2.796597            1.520460
 H            8.467313           -4.036989            0.861387
 H           10.788197           -4.044329           -0.027871
 H           12.649100            1.478692           -1.260038
 H           13.840816           -0.682489           -1.534607
 H           12.745444           -2.810005           -0.913368
 H           10.618704            2.739342           -0.575418
 H            8.301536            2.754261            0.305394
 H            3.552617            0.421525            4.722989
 H            1.315957            0.417005            5.747227
 H           -0.735076            0.516945            4.325165
 H           -1.762119            0.606864            2.097253
 H           -2.809020            0.703511           -0.126630
 H           -4.379884            2.943412           -2.007775
 H           -6.678006            2.872174           -1.065276
 H           -8.267053           -3.998578           -1.020775
 H          -10.577042           -4.129860           -0.113147

