90

 C          -10.326619            3.132212           -0.124124
 C          -10.899630            1.984523            0.493168
 C          -10.211435            0.796538            0.521118
 C           -8.912824            0.684054           -0.067429
 C           -8.346263            1.829494           -0.684765
 C           -9.082471            3.057141           -0.698412
 C           -7.054122            1.751216           -1.289247
 C           -6.341641            0.572713           -1.285093
 C           -5.029739            0.470359           -1.911600
 C           -4.327035           -0.687131           -1.917708
 C           -3.009197           -0.755793           -2.598393
 C           -2.941750           -1.045890           -3.927780
 C           -1.670723           -1.106902           -4.606976
 C           -0.515069           -0.873242           -3.935106
 C           -0.527267           -0.561095           -2.517116
 C            0.647869           -0.323639           -1.820278
 C            0.629687           -0.021285           -0.432725
 C            1.827249            0.221605            0.292272
 C            1.799176            0.518662            1.645878
 C            3.012028            0.771718            2.417383
 C            4.329918            0.695877            1.737702
 C            5.034353           -0.460519            1.747779
 C            6.344912           -0.570534            1.119799
 C            7.059049           -1.747870            1.139875
 C            8.349250           -1.833844            0.532203
 C            9.087011           -3.060283            0.562114
 C           10.329182           -3.142648           -0.015468
 C           10.898539           -2.004036           -0.652781
 C           10.208466           -0.817655           -0.696839
 C            8.911875           -0.697625           -0.105344
 C            8.163686            0.534636           -0.134305
 C            6.897730            0.595614            0.471452
 C            6.136784            1.822824            0.454304
 C            4.850171            1.896457            1.075196
 C            4.137776            3.093108            1.035276
 C            4.676097            4.225492            0.396242
 C            5.922968            4.171474           -0.204587
 C            6.671279            2.970411           -0.185202
 C            7.973896            2.880833           -0.801349
 C            8.683025            1.720695           -0.774255
 C            2.944429            1.065821            3.745820
 C            1.672835            1.132974            4.423526
 C            0.517157            0.899735            3.751774
 C            0.529494            0.582703            2.334833
 C           -0.645495            0.344440            1.638324
 C           -0.627288            0.039801            0.251136
 C           -1.824590           -0.204729           -0.473394
 C           -1.796609           -0.500635           -1.827357
 C           -4.849925           -1.896504           -1.273659
 C           -6.138458           -1.830715           -0.655759
 C           -6.676351           -2.987271           -0.035583
 C           -5.928863           -4.188993           -0.030535
 C           -4.679827           -4.235242           -0.627480
 C           -4.138721           -3.094289           -1.248625
 C           -7.982048           -2.906253            0.575187
 C           -8.690397           -1.745401            0.562650
 C           -8.166593           -0.549737           -0.055422
 C           -6.898266           -0.602687           -0.657066
 H          -10.891748            4.062876           -0.131355
 H          -11.889507            2.066973            0.939084
 H          -10.649104           -0.084038            0.994527
 H           -8.633593            3.927953           -1.174311
 H           -6.645336            2.646015           -1.757909
 H           -4.632856            1.370360           -2.384797
 H           -3.842648           -1.238041           -4.510415
 H           -1.674407           -1.344909           -5.669850
 H            0.451750           -0.912241           -4.435876
 H            1.608568           -0.366127           -2.333911
 H            2.779962            0.170852           -0.239719
 H            4.639479           -1.354130            2.234570
 H            6.652942           -2.635999            1.623283
 H            8.640881           -3.924370            1.052561
 H           10.895130           -4.072655            0.003710
 H           11.886666           -2.092242           -1.101329
 H           10.642908            0.055821           -1.186191
 H            3.152058            3.162403            1.499272
 H            4.098749            5.149577            0.379453
 H            6.336794            5.050889           -0.695798
 H            8.371107            3.771899           -1.287096
 H            9.669202            1.658953           -1.239000
 H            3.845456            1.256625            4.328808
 H            1.676405            1.375339            5.485444
 H           -0.450009            0.943192            4.251531
 H           -1.606430            0.388460            2.151387
 H           -2.777363           -0.156083            0.058737
 H           -6.345146           -5.075189            0.446160
 H           -4.103341           -5.160007           -0.621839
 H           -3.151847           -3.157850           -1.710956
 H           -8.382470           -3.804740            1.044372
 H           -9.679326           -1.690452            1.022407

