62

 C            8.723121           -0.359089           -1.466358
 C            8.063691            0.792475           -1.116857
 C            6.875215            0.734243           -0.321978
 C            6.167005            1.918889            0.059127
 C            5.039572            1.839348            0.834739
 C            4.555609            0.566061            1.272703
 C            3.357690            0.520253            2.146072
 C            3.506553            0.533419            3.500189
 C            2.358357            0.484193            4.371574
 C            1.103385            0.420393            3.859489
 C            0.885014            0.405870            2.424153
 C           -0.393123            0.341338            1.890646
 C           -0.602574            0.327513            0.486132
 C           -1.907470            0.256215           -0.071113
 C           -2.102907            0.243751           -1.443296
 C           -3.429937            0.167216           -2.045349
 C           -4.625319            0.075299           -1.172170
 C           -5.378553            1.263390           -0.910610
 C           -6.508671            1.207808           -0.136702
 C           -6.953679           -0.035773            0.415721
 C           -8.139806           -0.122231            1.211718
 C           -8.545360           -1.328282            1.725365
 C           -7.788646           -2.510486            1.474151
 C           -6.646348           -2.456388            0.715890
 C           -6.201352           -1.212556            0.163903
 C           -5.022178           -1.130567           -0.641037
 C           -3.580302            0.177253           -3.399460
 C           -2.433965            0.251223           -4.271412
 C           -1.178390            0.311790           -3.760062
 C           -0.958455            0.312954           -2.324935
 C            0.319897            0.381756           -1.791900
 C            0.530687            0.387761           -0.387539
 C            1.835801            0.453394            0.170467
 C            2.030493            0.460584            1.542834
 C            5.207817           -0.589313            0.908484
 C            6.387465           -0.529205            0.102135
 C            7.093611           -1.714276           -0.280568
 C            8.231149           -1.628747           -1.043159
 H            9.628646           -0.323828           -2.069821
 H            8.431772            1.766593           -1.435096
 H            6.543859            2.883769           -0.278575
 H            4.495137            2.734907            1.133715
 H            4.494751            0.579072            3.957328
 H            2.536117            0.498103            5.445993
 H            0.226498            0.378224            4.504425
 H           -1.261349            0.300585            2.548319
 H           -2.763033            0.211748            0.606160
 H           -5.033787            2.204255           -1.339114
 H           -7.087726            2.107459            0.069121
 H           -8.711221            0.785832            1.397757
 H           -9.447620           -1.403584            2.330086
 H           -8.135931           -3.452700            1.895151
 H           -6.060799           -3.353609            0.520352
 H           -4.449154           -2.038040           -0.830961
 H           -4.568200            0.123753           -3.856333
 H           -2.612954            0.253404           -5.345685
 H           -0.302514            0.361949           -4.405796
 H            1.186864            0.433985           -2.450405
 H            2.691837            0.497950           -0.506147
 H            4.839136           -1.562590            1.231728
 H            6.709095           -2.679521            0.045798
 H            8.775480           -2.524792           -1.337085

