74

 C           -6.939509            0.340324            3.722973
 C           -5.684484            1.016381            3.917216
 C           -4.923181            1.382233            2.848378
 C           -5.360650            1.102321            1.499645
 C           -4.599972            1.482554            0.384634
 C           -5.035883            1.201750           -0.918262
 C           -6.275306            0.507174           -1.109039
 C           -7.041241            0.134693            0.005433
 C           -6.606590            0.421860            1.307007
 C           -7.383505            0.050995            2.468018
 C           -6.711423            0.203274           -2.452617
 C           -5.960675            0.571936           -3.527266
 C           -4.724747            1.279925           -3.346194
 C           -4.275953            1.591406           -2.092715
 C           -3.012577            2.352665           -1.927699
 C           -3.031337            3.714830           -1.944461
 C           -1.811437            4.472961           -1.811580
 C           -0.616791            3.843419           -1.676733
 C           -0.536942            2.393902           -1.651228
 C            0.679008            1.740778           -1.517786
 C            0.750510            0.322744           -1.481122
 C            1.991221           -0.358351           -1.355425
 C            2.048741           -1.742225           -1.301210
 C            3.307683           -2.470667           -1.180474
 C            4.585874           -1.716840           -1.156473
 C            5.273488           -1.505684           -2.319356
 C            6.530602           -0.812134           -2.311665
 C            7.064513           -0.358784           -1.143763
 C            6.371071           -0.553915            0.108765
 C            6.911292           -0.092667            1.318415
 C            6.226160           -0.271738            2.528235
 C            6.768135            0.191518            3.785646
 C            6.082173            0.007524            4.948092
 C            4.800543           -0.646066            4.945825
 C            4.256124           -1.097131            3.781463
 C            4.954542           -0.931784            2.526880
 C            4.420472           -1.402699            1.318984
 C            5.107457           -1.230768            0.108505
 C            3.320386           -3.831132           -1.106317
 C            2.092229           -4.585836           -1.152812
 C            0.897360           -3.955675           -1.281418
 C            0.823706           -2.507942           -1.364340
 C           -0.391883           -1.854703           -1.500003
 C           -0.459902           -0.437735           -1.568815
 C           -1.698568            0.242172           -1.718283
 C           -1.756989            1.626205           -1.765959
 H           -7.518681            0.069577            4.604479
 H           -5.365770            1.223762            4.937438
 H           -3.969609            1.892481            2.980678
 H           -3.652463            2.004974            0.534133
 H           -7.987679           -0.383828           -0.142650
 H           -8.330219           -0.462136            2.306669
 H           -7.654535           -0.327034           -2.575652
 H           -6.276829            0.345015           -4.544572
 H           -4.156938            1.563313           -4.232154
 H           -3.965314            4.264568           -2.060931
 H           -1.884838            5.559666           -1.827193
 H            0.313989            4.401801           -1.583966
 H            1.603115            2.313280           -1.435363
 H            2.908401            0.232128           -1.300050
 H            4.884843           -1.860731           -3.273503
 H            7.040896           -0.666102           -3.262845
 H            8.021689            0.160096           -1.122185
 H            7.877253            0.410885            1.317489
 H            7.737491            0.687356            3.772448
 H            6.483182            0.347916            5.901635
 H            4.284270           -0.766607            5.896786
 H            3.285174           -1.591123            3.764401
 H            3.453345           -1.910277            1.321290
 H            4.256129           -4.382196           -1.012539
 H            2.160292           -5.670931           -1.084940
 H           -0.038181           -4.511886           -1.326335
 H           -1.318881           -2.425876           -1.552867
 H           -2.613577           -0.349263           -1.794199

