74

 C            6.641937           -2.710849           -1.921199
 C            5.446147           -2.319809           -2.617232
 C            4.783260           -1.181556           -2.269822
 C            5.265614           -0.335234           -1.201382
 C            6.449628           -0.734599           -0.500593
 C            7.122269           -1.951104           -0.897980
 C            6.943325            0.059259            0.543465
 C            6.292568            1.243617            0.914367
 C            6.802952            2.075023            1.981520
 C            6.170325            3.230088            2.328461
 C            4.973141            3.636674            1.643763
 C            4.461200            2.878782            0.634285
 C            5.107653            1.653297            0.221133
 C            4.616585            0.863335           -0.838980
 C            3.432773            1.321405           -1.610142
 C            3.607812            2.112183           -2.706484
 C            2.477941            2.574809           -3.473584
 C            1.213880            2.232775           -3.118019
 C            0.967494            1.392800           -1.959933
 C           -0.321039            1.039391           -1.589338
 C           -0.559545            0.216028           -0.457375
 C           -1.875950           -0.150321           -0.067391
 C           -2.098882           -0.955560            1.038394
 C           -3.438264           -1.347786            1.466366
 C           -4.620182           -0.868646            0.705163
 C           -5.227769            0.354681            1.056904
 C           -4.709391            1.199423            2.109639
 C           -5.331311            2.363975            2.445414
 C           -6.519171            2.784537            1.753011
 C           -7.033167            2.026207            0.745352
 C           -6.404457            0.782405            0.360653
 C           -6.932869           -0.009505           -0.667611
 C           -6.324928           -1.220065           -1.026275
 C           -6.871836           -2.049330           -2.076688
 C           -6.280923           -3.229662           -2.411944
 C           -5.091552           -3.665653           -1.731660
 C           -4.545212           -2.910044           -0.738473
 C           -5.147477           -1.658255           -0.337620
 C           -3.614165           -2.146004            2.556998
 C           -2.483994           -2.620435            3.316722
 C           -1.219381           -2.280103            2.961299
 C           -0.971805           -1.433637            1.808121
 C            0.317004           -1.080681            1.437646
 C            0.556035           -0.254450            0.307752
 C            1.872104            0.115711           -0.080302
 C            2.094563            0.921442           -1.185956
 H            7.145104           -3.624648           -2.233669
 H            5.088083           -2.957480           -3.423865
 H            3.870994           -0.881043           -2.788361
 H            8.023505           -2.234809           -0.356550
 H            7.846539           -0.246231            1.070751
 H            7.707795            1.749218            2.492350
 H            6.550541            3.867487            3.125404
 H            4.490751            4.561772            1.955363
 H            3.549418            3.176964            0.113492
 H            4.604038            2.414721           -3.030029
 H            2.675735            3.203487           -4.340896
 H            0.350683            2.575172           -3.687345
 H           -1.174876            1.392103           -2.167793
 H           -2.718606            0.215998           -0.658190
 H           -3.803891            0.875859            2.626282
 H           -4.945621            3.000907            3.239918
 H           -6.989015            3.719159            2.055705
 H           -7.929310            2.331424            0.207227
 H           -7.830113            0.317964           -1.191875
 H           -7.770149           -1.701386           -2.584435
 H           -6.688925           -3.865424           -3.196222
 H           -4.643021           -4.610792           -2.033458
 H           -3.638733           -3.230324           -0.221590
 H           -4.611059           -2.444236            2.882321
 H           -2.682279           -3.255856            4.178977
 H           -0.356376           -2.629984            3.526429
 H            1.170759           -1.436770            2.014193
 H            2.714991           -0.247909            0.511818

