94

 C           -6.192936            5.190919           -1.613875
 C           -5.076727            4.769440           -2.435525
 C           -4.591336            3.508170           -2.349016
 C           -5.167547            2.534312           -1.430094
 C           -6.278787            2.966019           -0.593364
 C           -6.764462            4.332498           -0.736390
 C           -6.858408            2.099728            0.304187
 C           -6.379071            0.756640            0.429279
 N           -6.968566           -0.084071            1.325169
 C           -6.492918           -1.353618            1.414838
 C           -7.087353           -2.279443            2.335848
 C           -6.616019           -3.567141            2.431930
 C           -7.213656           -4.527292            3.351622
 C           -6.743932           -5.793739            3.443002
 C           -5.625673           -6.230332            2.629389
 C           -5.032062           -5.382441            1.756651
 C           -5.497301           -4.009077            1.605579
 C           -4.908518           -3.145515            0.713025
 C           -5.385101           -1.797378            0.581728
 N           -4.800711           -0.960345           -0.313780
 C           -5.276808            0.311320           -0.407724
 C           -4.689923            1.238223           -1.346269
 C           -3.592289            0.758772           -2.222175
 C           -3.888259            0.127353           -3.392572
 C           -2.838043           -0.330899           -4.268207
 C           -1.534010           -0.146908           -3.940313
 C           -1.161728            0.507976           -2.699017
 C            0.167881            0.690401           -2.349998
 C            0.526677            1.323474           -1.130296
 C            1.885499            1.511805           -0.759869
 C            2.225514            2.122043            0.437240
 C            3.610713            2.325468            0.850528
 C            4.706025            1.888975           -0.050368
 C            5.281847            0.580061            0.148810
 N            4.807840           -0.233524            1.131585
 C            5.379425           -1.456287            1.280708
 C            4.905622           -2.344133            2.304870
 C            5.479987           -3.581071            2.475594
 C            5.018338           -4.498977            3.509798
 C            5.595108           -5.712397            3.676798
 C            6.690746           -6.135609            2.826188
 C            7.157374           -5.327970            1.844926
 C            6.578465           -4.009867            1.615871
 C            7.047663           -3.185259            0.621123
 C            6.470247           -1.887338            0.419025
 N            6.945511           -1.077502           -0.563008
 C            6.370482            0.148765           -0.713072
 C            6.851373            1.030834           -1.732898
 C            6.286903            2.273663           -1.902372
 C            6.776073            3.184918           -2.929040
 C            6.220557            4.407482           -3.102900
 C            5.116385            4.839814           -2.270625
 C            4.626477            4.034822           -1.298126
 C            5.187542            2.711816           -1.053428
 C            3.906357            2.908329            2.045987
 C            2.855494            3.356587            2.926261
 C            1.551735            3.201895            2.583130
 C            1.179870            2.575004            1.327418
 C           -0.149621            2.401853            0.973495
 C           -0.508247            1.778274           -0.251057
 C           -1.867083            1.590641           -0.621538
 C           -2.207168            0.972374           -1.814375
 H           -6.550624            6.213592           -1.729063
 H           -4.646034            5.499865           -3.119595
 H           -3.748952            3.180701           -2.963054
 H           -7.605612            4.631110           -0.110775
 H           -7.693621            2.402812            0.940242
 H           -7.919702           -1.922325            2.946534
 H           -8.052247           -4.183756            3.957639
 H           -7.186843           -6.519307            4.124481
 H           -5.285536           -7.258535            2.748276
 H           -4.189321           -5.695688            1.139897
 H           -4.069390           -3.447801            0.080982
 H           -4.920092           -0.052890           -3.692603
 H           -3.129902           -0.826940           -5.192950
 H           -0.731048           -0.488238           -4.591946
 H            0.960716            0.341212           -3.011230
 H            2.664007            1.156897           -1.437097
 H            4.079736           -1.996769            2.931206
 H            4.192083           -4.168053            4.139545
 H            5.257467           -6.404460            4.447501
 H            7.118900           -7.121169            3.006426
 H            7.978715           -5.632861            1.196171
 H            7.864790           -3.484397           -0.039212
 H            7.674984            0.681702           -2.360323
 H            7.606267            2.841734           -3.546297
 H            6.581704            5.096604           -3.865681
 H            4.697828            5.828347           -2.456515
 H            3.791828            4.349963           -0.667250
 H            4.937894            3.044220            2.369420
 H            3.146917            3.818311            3.868873
 H            0.748292            3.535715            3.238165
 H           -0.942773            2.739918            1.640141
 H           -2.645800            1.937650            0.059583

