96

 C           -5.804788           -1.917196            1.542300
 C           -4.634564           -2.312818            0.973016
 C           -4.298124           -1.957894           -0.395645
 C           -3.007371           -2.457973           -0.929176
 C           -2.959442           -3.649988           -1.587089
 C           -1.713759           -4.160962           -2.103714
 C           -0.562586           -3.458080           -1.952732
 C           -0.553314           -2.181614           -1.260586
 C            0.617997           -1.456203           -1.099103
 C            0.625831           -0.217860           -0.403437
 C            1.821200            0.528390           -0.219678
 C            1.818396            1.737674            0.458073
 C            3.031189            2.522559            0.666313
 C            4.324747            2.012378            0.150909
 C            5.097220            1.165460            0.893170
 C            6.355997            0.734485            0.359613
 C            7.362623           -0.091678            0.835924
 C            7.583360           -0.865860            2.045814
 C            6.496733           -1.484551            2.688157
 C            6.704979           -2.206933            3.865063
 C            7.990396           -2.321803            4.404440
 C            9.074302           -1.715022            3.761030
 C            8.876885           -0.990887            2.583857
 O            8.407116           -0.146459           -0.099517
 C            8.040539            0.665417           -1.182688
 C            9.015091            0.720983           -2.259758
 C            9.197347            1.913911           -2.980833
 C           10.127873            1.960282           -4.021271
 C           10.880581            0.826626           -4.344992
 C           10.704676           -0.359450           -3.624400
 C            9.777147           -0.416181           -2.582710
 C            6.792797            1.219711           -0.945809
 C            5.937708            2.094073           -1.696903
 C            4.744795            2.470140           -1.162793
 C            2.984119            3.717431            1.319207
 C            1.736543            4.235369            1.824169
 C            0.584203            3.535480            1.669654
 C            0.574512            2.255478            0.983676
 C           -0.596504            1.530473            0.820541
 C           -0.603452            0.290012            0.128038
 C           -1.798410           -0.457429           -0.052722
 C           -1.796097           -1.668137           -0.728359
 C           -5.140250           -1.207855           -1.165361
 C           -6.383877           -0.770538           -0.601625
 C           -7.433036           -0.003254           -1.083601
 C           -7.744626            0.642464           -2.347198
 C           -8.430403            1.869398           -2.371103
 C           -8.711376            2.485296           -3.592163
 C           -8.318282            1.882200           -4.791409
 C           -7.642562            0.657505           -4.769451
 C           -7.357079            0.033030           -3.553710
 O           -8.406876            0.144515           -0.084246
 C           -7.963101           -0.570561            1.037847
 C           -8.880905           -0.573444            2.164868
 C           -9.658868            0.562144            2.451630
 C          -10.543325            0.545044            3.531656
 C          -10.659329           -0.599698            4.327077
 C           -9.887677           -1.731154            4.042256
 C           -9.000161           -1.724316            2.964170
 C           -6.725599           -1.133724            0.769523
 H           -6.065112           -2.165952            2.569043
 H           -3.907908           -2.907950            1.525681
 H           -3.858774           -4.246384           -1.738248
 H           -1.731743           -5.123886           -2.612616
 H            0.385084           -3.829680           -2.340580
 H            1.556362           -1.830630           -1.508959
 H            2.753247            0.130171           -0.625623
 H            4.793540            0.817007            1.878687
 H            5.496698           -1.406014            2.263064
 H            5.861023           -2.681637            4.363508
 H            8.147264           -2.883159            5.324230
 H           10.075212           -1.803503            4.181137
 H            9.718787           -0.517325            2.078030
 H            8.621840            2.801705           -2.720922
 H           10.267912            2.884055           -4.581003
 H           11.603577            0.866979           -5.158009
 H           11.289716           -1.242725           -3.877368
 H            9.637585           -1.337066           -2.015338
 H            6.265902            2.430424           -2.678477
 H            4.064634            3.129623           -1.701466
 H            3.885952            4.308557            1.477656
 H            1.755176            5.200748            2.328564
 H           -0.364400            3.912743            2.049564
 H           -1.536560            1.906802            1.224865
 H           -2.730318           -0.057789            0.352721
 H           -4.895826           -0.924997           -2.187595
 H           -8.738718            2.331975           -1.433810
 H           -9.237157            3.438733           -3.608685
 H           -8.541884            2.363857           -5.741921
 H           -7.338959            0.186370           -5.703244
 H           -6.845101           -0.928686           -3.537590
 H           -9.567830            1.449491            1.825181
 H          -11.144160            1.425914            3.753406
 H          -11.353077           -0.610853            5.165978
 H           -9.981898           -2.623470            4.659748
 H           -8.411443           -2.611952            2.734380

