90

 C           -7.574109            7.056151           -2.758582
 C           -7.940598            5.766971           -2.936989
 C           -7.264306            4.701108           -2.202489
 N           -7.622914            3.435877           -2.377227
 C           -6.942872            2.453584           -1.651168
 C           -7.300796            1.107632           -1.818174
 C           -6.618026            0.120482           -1.089827
 N           -6.973050           -1.219486           -1.254538
 C           -6.311594           -2.134076           -0.555447
 C           -6.658244           -3.543433           -0.701045
 C           -5.988301           -4.483250            0.002769
 C           -4.919990           -4.126301            0.915689
 C           -4.544825           -2.836175            1.113856
 C           -3.474452           -2.491879            2.080427
 C           -3.805762           -2.026375            3.317511
 C           -2.784860           -1.730584            4.292484
 C           -1.472983           -1.913663            3.997700
 C           -1.062582           -2.399024            2.692269
 C            0.276090           -2.590208            2.383783
 C            0.677316           -3.050665            1.101592
 C            2.045002           -3.264732            0.778665
 C            2.426651           -3.701682           -0.480279
 C            3.818249           -3.948783           -0.842854
 C            4.885424           -3.794624            0.175710
 C            5.442262           -2.462434            0.448778
 N            4.972840           -1.386993           -0.168294
 C            5.541395           -0.148136            0.135832
 C            5.049788            1.003472           -0.499061
 C            5.615207            2.250437           -0.190422
 N            5.118313            3.395606           -0.817836
 C            5.661757            4.564114           -0.503583
 C            5.172984            5.791355           -1.125932
 C            5.723009            6.983789           -0.804332
 C            6.807774            7.083681            0.158629
 C            7.310596            5.988549            0.772019
 C            6.766954            4.665593            0.477773
 N            7.257540            3.590688            1.081506
 C            6.697214            2.348725            0.769736
 C            7.190980            1.197108            1.400817
 C            6.621980           -0.049223            1.096299
 N            7.105177           -1.194531            1.731964
 C            6.546644           -2.360747            1.432442
 C            7.024233           -3.576407            2.082363
 C            6.455953           -4.768245            1.793499
 C            5.376122           -4.877505            0.832184
 C            4.152574           -4.352151           -2.101054
 C            3.137540           -4.558597           -3.104165
 C            1.826874           -4.364009           -2.811451
 C            1.414639           -3.931469           -1.488128
 C            0.076442           -3.737586           -1.180073
 C           -0.325311           -3.303758            0.111074
 C           -1.694706           -3.115792            0.441843
 C           -2.077694           -2.682607            1.701563
 C           -5.224770           -1.759282            0.380035
 N           -4.875688           -0.491664            0.552249
 C           -5.555617            0.487021           -0.175282
 C           -5.196159            1.834185           -0.008888
 C           -5.879210            2.820382           -0.736435
 N           -5.519946            4.160223           -0.567353
 C           -6.177756            5.074853           -1.267069
 C           -5.839222            6.488584           -1.127471
 C           -6.507840            7.422490           -1.840441
 H           -8.067827            7.865349           -3.299330
 H           -8.738232            5.467048           -3.620680
 H           -8.103254            0.829177           -2.509479
 H           -7.469570           -3.784555           -1.391806
 H           -6.233285           -5.542978           -0.089889
 H           -4.423261           -4.940119            1.449450
 H           -4.845535           -1.863584            3.600577
 H           -3.105520           -1.359322            5.264990
 H           -0.691728           -1.698366            4.725882
 H            1.044489           -2.382534            3.128386
 H            2.796772           -3.069670            1.544341
 H            4.231263            0.929790           -1.224366
 H            4.357122            5.688293           -1.845385
 H            5.369158            7.910979           -1.257977
 H            7.200665            8.080264            0.367199
 H            8.124722            6.038111            1.498995
 H            8.009370            1.269741            2.125034
 H            7.845458           -3.466657            2.794631
 H            6.796474           -5.689615            2.269702
 H            4.969270           -5.874359            0.646981
 H            5.190526           -4.527465           -2.382254
 H            3.460721           -4.876235           -4.094590
 H            1.048672           -4.521985           -3.557169
 H           -0.690229           -3.913933           -1.934111
 H           -2.445405           -3.314908           -0.323803
 H           -4.389984            2.111281            0.679951
 H           -5.034429            6.736445           -0.431250
 H           -6.267967            8.483118           -1.749397

