90

 C           14.983497           -1.096051           -2.363733
 C           14.429332           -0.745093           -3.661098
 C           13.165910           -0.280249           -3.787223
 C           12.320128           -0.119841           -2.607803
 N           11.078604            0.331642           -2.731816
 C           10.310334            0.465088           -1.572399
 C            8.993993            0.940745           -1.675380
 C            8.220461            1.076263           -0.512495
 N            6.914134            1.560257           -0.618683
 C            6.202277            1.683787            0.494507
 C            4.841241            2.201418            0.440615
 C            4.111666            2.333595            1.576487
 C            2.740114            2.896311            1.548443
 C            2.564054            4.244295            1.455250
 C            1.240404            4.816293            1.422578
 C            0.142740            4.020357            1.473361
 C            0.271675            2.577170            1.568530
 C           -0.845005            1.756155            1.608423
 C           -0.716146            0.345302            1.709063
 C           -1.853176           -0.506150            1.739262
 C           -1.717545           -1.881311            1.849849
 C           -2.862784           -2.784364            1.873078
 C           -4.231714           -2.225824            1.757189
 C           -4.863341           -2.150912            0.559390
 C           -6.226169           -1.641553            0.475644
 N           -6.844065           -1.578281           -0.696980
 C           -8.158489           -1.105075           -0.721857
 C           -8.834525           -1.035680           -1.949335
 C          -10.159712           -0.574249           -1.977616
 N          -10.830748           -0.507641           -3.201208
 C          -12.083042           -0.068995           -3.201642
 C          -12.829577            0.022159           -4.453144
 C          -14.103776            0.474541           -4.454326
 C          -14.767093            0.879485           -3.225723
 C          -14.137436            0.817131           -2.030842
 C          -12.759797            0.340526           -1.949224
 N          -12.141433            0.284608           -0.776372
 C          -10.821914           -0.173403           -0.751911
 C          -10.143958           -0.238974            0.475767
 C           -8.818525           -0.698563            0.503380
 N           -8.143320           -0.761613            1.725572
 C           -6.896373           -1.213543            1.725579
 C           -6.147372           -1.303282            2.976503
 C           -4.884594           -1.782836            2.985347
 C           -2.689605           -4.130032            1.998014
 C           -1.367964           -4.697458            2.105832
 C           -0.269667           -3.901085            2.076740
 C           -0.395769           -2.460636            1.943517
 C            0.721355           -1.639823            1.902911
 C            0.593364           -0.230659            1.780118
 C            1.730699            0.619714            1.724712
 C            1.594824            1.995197            1.618959
 C            4.658834            1.950942            2.874721
 C            5.915087            1.469195            2.993845
 C            6.763066            1.313288            1.814651
 N            8.000747            0.852928            1.939142
 C            8.772457            0.723990            0.781045
 C           10.089212            0.250294            0.884710
 C           10.863998            0.117660           -0.278406
 N           12.174316           -0.354989           -0.171803
 C           12.885717           -0.474734           -1.285499
 C           14.258432           -0.968977           -1.229671
 H           16.009448           -1.467607           -2.341524
 H           15.075244           -0.872119           -4.531422
 H           12.727576           -0.009960           -4.750951
 H            8.574459            1.204943           -2.652448
 H            4.450940            2.474103           -0.543931
 H            3.414546            4.924714            1.401770
 H            1.156853            5.900457            1.352856
 H           -0.863769            4.437561            1.443080
 H           -1.844947            2.188548            1.560675
 H           -2.844047           -0.053781            1.668911
 H           -4.391873           -2.468078           -0.375085
 H           -8.333539           -1.340686           -2.874790
 H          -12.310228           -0.288326           -5.363015
 H          -14.676686            0.550296           -5.379953
 H          -15.795162            1.236914           -3.306291
 H          -14.614181            1.113362           -1.093551
 H          -10.646057            0.064476            1.401106
 H           -6.659186           -0.969698            3.882975
 H           -4.307739           -1.858583            3.909965
 H           -3.540341           -4.811753            2.016819
 H           -1.286380           -5.779352            2.206658
 H            0.735262           -4.316543            2.150827
 H            1.720691           -2.071804            1.964023
 H            2.721986            0.164416            1.762250
 H            4.008621            2.075110            3.743877
 H            6.349017            1.181610            3.955117
 H           10.509524           -0.012799            1.861715
 H           14.651932           -1.223981           -0.242911

