94

 C           -3.377159           -6.354362            0.912565
 C           -2.458914           -5.790099           -0.057448
 C           -2.640174           -4.537996           -0.540868
 C           -3.756295           -3.717103           -0.100803
 C           -4.677287           -4.284905            0.885307
 C           -4.436134           -5.644518            1.365222
 N           -5.727463           -3.620576            1.363901
 C           -5.967472           -2.322994            0.916127
 C           -7.082039           -1.641550            1.438511
 C           -7.369755           -0.336525            1.024484
 C           -8.499864            0.399374            1.513305
 C           -8.738734            1.677609            1.069321
 C           -9.871650            2.476068            1.506822
 C          -10.060169            3.731367            1.034614
 C           -9.134006            4.319170            0.084352
 C           -8.060159            3.629587           -0.363771
 C           -7.809157            2.265547            0.100530
 N           -6.751886            1.612034           -0.375126
 C           -6.509398            0.310546            0.062661
 C           -5.395476           -0.372266           -0.460155
 C           -5.111239           -1.681994           -0.054894
 C           -3.991189           -2.436240           -0.562464
 C           -3.118686           -1.819214           -1.592099
 C           -3.440231           -1.932519           -2.911233
 C           -2.601457           -1.346296           -3.927586
 C           -1.473844           -0.671696           -3.588565
 C           -1.085409           -0.518338           -2.197955
 C            0.063721            0.171604           -1.842705
 C            0.436311            0.324572           -0.480820
 C            1.610175            1.031504           -0.105153
 C            1.964608            1.176263            1.227000
 C            3.161064            1.897850            1.647337
 C            4.030761            2.515966            0.616036
 C            5.124867            1.747550            0.074304
 C            5.391587            0.426749            0.454841
 C            6.477455           -0.271669           -0.105219
 N            6.703919           -1.583751            0.308966
 C            7.731321           -2.254247           -0.206883
 C            7.965638           -3.629489            0.232480
 C            9.006621           -4.338443           -0.260754
 C            9.913266           -3.760803           -1.235743
 C            9.740010           -2.494810           -1.684653
 C            8.643361           -1.674893           -1.197278
 C            8.422459           -0.384582           -1.614810
 C            7.325658            0.370297           -1.081176
 C            7.057999            1.688211           -1.466872
 C            5.972870            2.385977           -0.905621
 N            5.753145            3.696635           -1.324918
 C            4.729272            4.375786           -0.811454
 C            4.510100            5.749572           -1.260582
 C            3.476503            6.474123           -0.773726
 C            2.563967            5.911507            0.202596
 C            2.725836            4.646401            0.658425
 C            3.815291            3.809951            0.182361
 C            3.483436            2.011103            2.966231
 C            2.645325            1.423865            3.982577
 C            1.517653            0.749238            3.644183
 C            1.128408            0.595787            2.253760
 C           -0.020683           -0.094163            1.898712
 C           -0.393722           -0.247060            0.536823
 C           -1.567738           -0.953491            0.160991
 C           -1.921970           -1.098395           -1.171272
 H           -3.182047           -7.368819            1.261109
 H           -1.622043           -6.408684           -0.379532
 H           -1.954540           -4.102536           -1.270907
 H           -5.145794           -6.041924            2.093271
 H           -7.716732           -2.148669            2.168799
 H           -9.159251           -0.081201            2.237270
 H          -10.558263            2.023819            2.222154
 H          -10.908591            4.337522            1.350521
 H           -9.337334            5.335823           -0.252929
 H           -7.345947            4.046111           -1.076979
 H           -4.755210            0.138547           -1.187510
 H           -4.335598           -2.465887           -3.232489
 H           -2.905631           -1.464047           -4.967078
 H           -0.829210           -0.224671           -4.345235
 H            0.700342            0.609691           -2.612073
 H            2.233496            1.461109           -0.892079
 H            4.758723           -0.080880            1.190874
 H            7.266292           -4.038331            0.964570
 H            9.196771           -5.363976            0.056854
 H           10.733877           -4.383769           -1.589989
 H           10.411661           -2.050081           -2.418714
 H            9.070505            0.090893           -2.352324
 H            7.685501            2.192574           -2.205324
 H            5.214301            6.145033           -1.995061
 H            3.297779            7.499171           -1.099408
 H            1.746955            6.541806            0.551959
 H            2.043577            4.211737            1.392137
 H            4.378530            2.545206            3.287084
 H            2.950201            1.541507            5.021933
 H            0.873454            0.302104            4.401092
 H           -0.657147           -0.532573            2.667965
 H           -2.191573           -1.383030            0.947501

