94

 C            6.293985            5.489948            5.724813
 C            7.302198            6.181455            4.942841
 C            7.611841            5.779877            3.688914
 C            6.932385            4.631456            3.090527
 N            7.263819            4.265278            1.854394
 C            6.621648            3.169334            1.278823
 C            6.982994            2.797935           -0.028781
 C            6.365764            1.703204           -0.645251
 C            6.681613            1.282827           -1.978680
 C            6.039791            0.203759           -2.539301
 C            6.308116           -0.254169           -3.891179
 C            5.649935           -1.320561           -4.404249
 C            4.669436           -2.039319           -3.619351
 C            4.368537           -1.672269           -2.345663
 C            3.383994           -2.440212           -1.547274
 C            3.809050           -3.225479           -0.517442
 C            2.877143           -4.032213            0.230771
 C            1.555904           -4.030264           -0.078797
 C            1.043803           -3.196250           -1.151013
 C           -0.307568           -3.174105           -1.461788
 C           -0.812004           -2.332905           -2.488788
 C           -2.194380           -2.302078           -2.816647
 C           -2.683317           -1.451216           -3.795809
 C           -4.097241           -1.388155           -4.153306
 C           -5.064787           -2.308934           -3.508752
 C           -5.574013           -3.361396           -4.201731
 C           -6.543534           -4.260193           -3.612984
 C           -6.980389           -4.078868           -2.344366
 C           -6.476828           -2.982810           -1.535256
 C           -6.881144           -2.770698           -0.238252
 C           -6.334224           -1.687821            0.524819
 C           -6.691882           -1.442503            1.855765
 C           -6.103855           -0.377004            2.560557
 N           -6.479492           -0.178502            3.888949
 C           -5.926297            0.820134            4.573564
 C           -6.318348            1.017161            5.968616
 C           -5.774374            2.018307            6.697707
 C           -4.797964            2.922763            6.119207
 C           -4.399914            2.788514            4.831443
 C           -4.936920            1.731200            3.991514
 C           -4.562458            1.542945            2.682613
 C           -5.133409            0.475560            1.912809
 C           -4.782621            0.235418            0.579476
 C           -5.366912           -0.834730           -0.123792
 N           -4.976606           -1.045453           -1.444750
 C           -5.491841           -2.068178           -2.121124
 C           -4.539012           -0.511007           -5.098908
 C           -3.619554            0.363936           -5.782743
 C           -2.291839            0.325617           -5.505347
 C           -1.767088           -0.580897           -4.500008
 C           -0.412888           -0.618067           -4.203735
 C            0.096278           -1.486391           -3.202069
 C            1.480869           -1.530024           -2.886115
 C            1.967159           -2.366644           -1.893584
 C            5.041196           -0.511818           -1.738850
 N            4.726501           -0.148261           -0.498774
 C            5.360780            0.954108            0.070868
 C            4.994864            1.328717            1.377171
 C            5.608922            2.425550            1.992189
 C            5.275643            2.853938            3.320030
 C            5.914251            3.933965            3.880777
 C            5.632450            4.420826            5.220727
 H            6.092640            5.863360            6.728134
 H            7.799338            7.034984            5.404972
 H            8.365531            6.279855            3.077152
 H            7.748001            3.376181           -0.551928
 H            7.437777            1.839898           -2.534224
 H            7.052216            0.292529           -4.469791
 H            5.837187           -1.673353           -5.418446
 H            4.177256           -2.895049           -4.086401
 H            4.860154           -3.260698           -0.231715
 H            3.271756           -4.639619            1.043883
 H            0.842755           -4.644189            0.469260
 H           -1.006852           -3.801294           -0.909139
 H           -2.873404           -2.956522           -2.268251
 H           -5.263579           -3.558382           -5.229800
 H           -6.906546           -5.081537           -4.230662
 H           -7.714416           -4.744149           -1.890411
 H           -7.617919           -3.421025            0.235965
 H           -7.424504           -2.073933            2.363315
 H           -7.057022            0.323583            6.375325
 H           -6.052382            2.177645            7.740016
 H           -4.401643            3.710356            6.758920
 H           -3.669563            3.462235            4.383596
 H           -3.827682            2.193278            2.204568
 H           -4.049820            0.866368            0.068850
 H           -5.594198           -0.445040           -5.360489
 H           -4.027816            1.047935           -6.525213
 H           -1.584533            0.973640           -6.020654
 H            0.282121            0.030129           -4.736398
 H            2.159874           -0.878567           -3.437986
 H            4.225296            0.751911            1.896572
 H            4.508563            2.303117            3.866744
 H            4.873545            3.892017            5.796912

