94

 C            3.245000            1.996735            6.701815
 C            4.170937            1.090170            7.354187
 C            4.932579            0.231426            6.637740
 C            4.844319            0.207131            5.179183
 N            5.613066           -0.645973            4.503410
 C            5.546266           -0.661147            3.111412
 C            6.379533           -1.561319            2.422386
 C            6.363087           -1.605909            1.025677
 C            7.205540           -2.498233            0.279994
 C            7.166691           -2.506380           -1.092643
 C            7.996084           -3.371996           -1.914596
 C            7.912186           -3.334062           -3.265721
 C            6.990301           -2.432982           -3.933045
 C            6.190585           -1.601693           -3.227132
 C            6.241356           -1.590664           -1.765332
 N            5.449469           -0.749705           -1.106656
 C            5.486518           -0.727310            0.286712
 C            4.647837            0.181998            0.974159
 C            3.783659            1.116895            0.211594
 C            4.319671            2.256107           -0.310316
 C            3.497827            3.193171           -1.035491
 C            2.173393            2.958754           -1.214460
 C            1.552528            1.755410           -0.690714
 C            0.202001            1.502500           -0.878051
 C           -0.401091            0.320278           -0.372550
 C           -1.784661            0.052425           -0.554671
 C           -2.362122           -1.108001           -0.063616
 C           -3.778651           -1.415172           -0.234073
 C           -4.647471           -0.471155           -0.980278
 C           -5.412347            0.491837           -0.280197
 N           -5.291838            0.562774            1.106754
 C           -6.014242            1.455081            1.777755
 C           -5.874468            1.519066            3.232369
 C           -6.602297            2.403691            3.951224
 C           -7.534170            3.309809            3.304956
 C           -7.698341            3.300341            1.960753
 C           -6.947595            2.377491            1.125584
 C           -7.067985            2.321512           -0.241223
 C           -6.300451            1.374590           -1.000158
 C           -6.399055            1.282058           -2.391223
 C           -5.635281            0.331632           -3.093017
 N           -5.781088            0.271517           -4.477770
 C           -5.077997           -0.628300           -5.164217
 C           -5.249923           -0.699440           -6.613774
 C           -4.554412           -1.604115           -7.340805
 C           -3.619460           -2.516248           -6.709325
 C           -3.418801           -2.491250           -5.369751
 C           -4.141020           -1.554043           -4.526177
 C           -3.990599           -1.496425           -3.160602
 C           -4.742161           -0.553576           -2.383979
 C           -4.313127           -2.558236            0.280645
 C           -3.488676           -3.501181            0.995271
 C           -2.163931           -3.267171            1.172776
 C           -1.544550           -2.060716            0.654377
 C           -0.193788           -1.808254            0.840390
 C            0.408330           -0.624738            0.336798
 C            1.791141           -0.355330            0.522143
 C            2.368661            0.806006            0.033326
 C            4.664128            0.219420            2.383202
 C            3.842656            1.112553            3.147624
 C            3.915740            1.126740            4.520703
 C            3.119510            2.012661            5.352981
 H            2.657462            2.658399            7.337214
 H            4.228512            1.127175            8.442447
 H            5.634213           -0.465028            7.100773
 H            7.039815           -2.216278            2.995817
 H            7.874412           -3.161653            0.830277
 H            8.682337           -4.045007           -1.401154
 H            8.529345           -3.975534           -3.894097
 H            6.967537           -2.453363           -5.022784
 H            5.484411           -0.914807           -3.698755
 H            5.380142            2.482421           -0.201370
 H            3.978460            4.086340           -1.432213
 H            1.540397            3.658420           -1.758536
 H           -0.417665            2.213291           -1.424533
 H           -2.393313            0.785968           -1.086143
 H           -5.163939            0.825791            3.687926
 H           -6.512150            2.464617            5.035940
 H           -8.092426            3.994137            3.943215
 H           -8.393375            3.976049            1.462936
 H           -7.746399            2.987446           -0.776530
 H           -7.070792            1.938112           -2.949866
 H           -5.957660            0.001034           -7.061164
 H           -4.674248           -1.675612           -8.422242
 H           -3.088216           -3.216575           -7.352772
 H           -2.715931           -3.167519           -4.882365
 H           -3.297524           -2.164819           -2.641165
 H           -5.373980           -2.783550            0.174638
 H           -3.967573           -4.397854            1.386014
 H           -1.529319           -3.970246            1.710606
 H            0.426727           -2.520642            1.383834
 H            2.398808           -1.088765            1.055010
 H            3.159242            1.778986            2.613009
 H            2.423590            2.684312            4.849496

