94

 C          -11.674098            0.883043           -4.398587
 C          -11.468297            0.380313           -3.158037
 C          -10.223840            0.629653           -2.449719
 C           -9.961752            0.143130           -1.191874
 C           -8.706906            0.422518           -0.554913
 C           -8.389640           -0.051373            0.722735
 C           -7.141869            0.249519            1.299513
 N           -6.861285           -0.251314            2.569538
 C           -5.685508            0.026572            3.130487
 C           -5.401774           -0.518960            4.456166
 C           -4.220326           -0.263007            5.063080
 C           -3.214347            0.561941            4.427695
 C           -3.420855            1.098185            3.195643
 C           -2.390055            1.962187            2.568883
 C           -2.338729            3.289389            2.872204
 C           -1.327576            4.140567            2.294446
 C           -0.402248            3.633978            1.440948
 C           -0.412311            2.227731            1.079343
 C            0.528630            1.701041            0.207491
 C            0.515536            0.324901           -0.143253
 C            1.473706           -0.225141           -1.036845
 C            1.453936           -1.569989           -1.371918
 C            2.413368           -2.162508           -2.298303
 C            3.416910           -1.291162           -2.958523
 C            4.653402           -0.970056           -2.251714
 C            4.945842           -1.409487           -0.982198
 C            6.185564           -1.051809           -0.356345
 C            6.525079           -1.468013            0.936602
 C            7.757751           -1.091356            1.500871
 N            8.056708           -1.531368            2.790060
 C            9.217604           -1.180135            3.338281
 C            9.526882           -1.645458            4.689881
 C           10.692370           -1.300164            5.283544
 C           11.664540           -0.466672            4.600551
 C           11.434880           -0.013912            3.344991
 C           10.203965           -0.344906            2.646754
 C            9.918926            0.087826            1.374198
 C            8.678618           -0.270676            0.748913
 C            8.339052            0.146005           -0.543056
 C            7.105750           -0.229583           -1.106393
 N            6.802460            0.214538           -2.392312
 C            5.638783           -0.131587           -2.939883
 C            5.333574            0.351249           -4.284939
 C            4.163342            0.025219           -4.879750
 C            3.189719           -0.811125           -4.210070
 C            2.378303           -3.494709           -2.581005
 C            1.380957           -4.350296           -1.986069
 C            0.449921           -3.842438           -1.139461
 C            0.446375           -2.431894           -0.794651
 C           -0.498485           -1.904304            0.072435
 C           -0.490928           -0.526357            0.416730
 C           -1.452658            0.025087            1.305600
 C           -1.428149            1.368664            1.645995
 C           -4.665161            0.848054            2.474066
 C           -4.933009            1.338287            1.217665
 C           -6.184073            1.053656            0.577584
 C           -6.499975            1.523866           -0.702957
 C           -7.747122            1.222647           -1.279985
 N           -8.022178            1.715942           -2.555334
 C           -9.197403            1.438030           -3.114546
 C           -9.481628            1.958925           -4.451390
 C          -10.661555            1.689116           -5.055370
 H          -12.601114            0.699826           -4.940849
 H          -12.221082           -0.224421           -2.652669
 H          -10.694169           -0.461316           -0.654501
 H           -9.101513           -0.658690            1.286344
 H           -6.180554           -1.131729            4.914324
 H           -3.988582           -0.667071            6.049467
 H           -2.286722            0.739309            4.972801
 H           -3.054615            3.740136            3.560017
 H           -1.332728            5.194357            2.571054
 H            0.373962            4.262647            1.004897
 H            1.298025            2.342985           -0.222432
 H            2.232684            0.436662           -1.459611
 H            4.242456           -2.035873           -0.426077
 H            5.839889           -2.086361            1.522039
 H            8.778260           -2.272684            5.178096
 H           10.937836           -1.637429            6.290957
 H           12.581545           -0.221794            5.135599
 H           12.157683            0.610219            2.819727
 H           10.621763            0.708760            0.816414
 H            9.022269            0.765941           -1.128107
 H            6.087347            0.976299           -4.767725
 H            3.916648            0.379553           -5.881522
 H            2.268133           -1.042451           -4.745128
 H            3.094944           -3.945965           -3.267654
 H            1.398940           -5.407965           -2.246710
 H           -0.319618           -4.473585           -0.695450
 H           -1.265100           -2.547320            0.505573
 H           -2.217521           -0.634306            1.721331
 H           -4.201360            1.951180            0.683279
 H           -5.784971            2.126987           -1.268389
 H           -8.702763            2.563742           -4.920268
 H          -10.888688            2.068335           -6.052118

