96

 C          -14.094216            1.800405           -4.067787
 C          -14.676552            2.214173           -2.805106
 C          -14.003442            2.062567           -1.641429
 C          -12.663844            1.476218           -1.631001
 N          -12.031076            1.345761           -0.466484
 C          -10.750473            0.793831           -0.451144
 C          -10.088138            0.664370            0.782339
 C           -8.796421            0.122164            0.842823
 C           -8.099510           -0.015059            2.088525
 C           -6.834189           -0.553201            2.143198
 C           -6.113508           -0.701794            3.400683
 C           -4.876044           -1.248585            3.439872
 C           -4.230413           -1.704806            2.219020
 C           -2.891074           -2.329659            2.335637
 C           -2.783525           -3.662183            2.597458
 C           -1.490646           -4.292405            2.703285
 C           -0.353571           -3.570293            2.537427
 C           -0.408688           -2.146730            2.256951
 C            0.746880           -1.400827            2.079998
 C            0.687671           -0.006376            1.816869
 C            1.864150            0.766659            1.623631
 C            1.795977            2.129374            1.379381
 C            2.984470            2.948627            1.166726
 C            4.321022            2.307381            1.183428
 C            4.875055            1.793384            0.054810
 C            6.204915            1.205408            0.074878
 C            6.785390            0.689397           -1.061758
 C            8.104416            0.130915           -1.034431
 C            8.700854           -0.391718           -2.193181
 C            9.993388           -0.931264           -2.157042
 C           10.639260           -1.477158           -3.313851
 C           11.907269           -2.000172           -3.218560
 C           12.620863           -2.575058           -4.346190
 C           13.867521           -3.082407           -4.193568
 C           14.527813           -3.064163           -2.901865
 C           13.919597           -2.540348           -1.812820
 C           12.572802           -1.979683           -1.913841
 N           12.005063           -1.476151           -0.819503
 C           10.717954           -0.946616           -0.908240
 C           10.124093           -0.422226            0.253304
 C            8.828824            0.113301            0.210589
 C            8.200627            0.648500            1.383270
 C            6.931917            1.179263            1.334479
 C            6.279997            1.728466            2.516049
 C            5.038941            2.264209            2.447617
 C            2.877873            4.289330            0.950090
 C            1.587363            4.932476            0.918460
 C            0.451172            4.212152            1.096392
 C            0.505393            2.780051            1.330057
 C           -0.649887            2.033880            1.505948
 C           -0.591097            0.635131            1.745852
 C           -1.768367           -0.141219            1.917932
 C           -1.700584           -1.503798            2.163520
 C           -4.851013           -1.575493            1.017732
 C           -6.181046           -0.995510            0.921099
 C           -6.828532           -0.866310           -0.286881
 C           -8.146016           -0.309254           -0.367941
 C           -8.810871           -0.180783           -1.597980
 C          -10.100756            0.362177           -1.666114
 C          -10.815203            0.514012           -2.898923
 C          -12.076924            1.060459           -2.906992
 C          -12.857547            1.249837           -4.117745
 H          -14.688330            1.949504           -4.968277
 H          -15.675161            2.650838           -2.831027
 H          -14.416753            2.364303           -0.677221
 H          -10.597110            0.992931            1.691139
 H           -8.602091            0.319388            2.996580
 H           -6.611837           -0.356735            4.306786
 H           -4.326234           -1.365129            4.373829
 H           -3.668273           -4.284732            2.729546
 H           -1.462892           -5.360211            2.916383
 H            0.629724           -4.033432            2.610658
 H            1.723902           -1.880468            2.142463
 H            2.832623            0.264340            1.670241
 H            4.344184            1.812405           -0.897215
 H            6.249938            0.698494           -2.011184
 H            8.150219           -0.377644           -3.134034
 H           10.102951           -1.467443           -4.263233
 H           12.114652           -2.582159           -5.311054
 H           14.411814           -3.517919           -5.030348
 H           15.530401           -3.488322           -2.843604
 H           14.392210           -2.512767           -0.829230
 H           10.688746           -0.439228            1.188097
 H            8.758379            0.624288            2.319945
 H            6.832432            1.691528            3.455143
 H            4.539830            2.677561            3.324076
 H            3.761401            4.907734            0.792449
 H            1.560665            6.007482            0.745088
 H           -0.530791            4.683211            1.071215
 H           -1.626531            2.516468            1.462879
 H           -2.737467            0.357823            1.852347
 H           -4.374995           -1.907170            0.094684
 H           -6.348971           -1.189894           -1.210766
 H           -8.316287           -0.508070           -2.512816
 H          -10.335924            0.187996           -3.822553
 H          -12.409583            0.934498           -5.059637

