96

 C            6.527249            5.277814           -2.729540
 C            5.309484            5.647190           -2.031630
 C            4.715169            4.796806           -1.163812
 C            5.293611            3.478217           -0.904778
 N            4.689676            2.676265           -0.032413
 C            5.228970            1.415652            0.222310
 C            6.426620            0.967633           -0.447934
 C            7.051726            1.860153           -1.381237
 C            6.516089            3.102424           -1.619422
 C            7.100328            4.065635           -2.537506
 C            6.944344           -0.300443           -0.164345
 C            6.315333           -1.144577            0.765510
 C            6.859347           -2.432582            1.076080
 C            6.256128           -3.261042            1.995658
 C            6.808457           -4.562933            2.342708
 C            6.195223           -5.360836            3.250166
 C            4.966852           -4.942233            3.895169
 C            4.410269           -3.740731            3.608925
 C            5.031180           -2.835530            2.651794
 C            4.491485           -1.601765            2.363901
 C            5.114256           -0.711117            1.429697
 C            4.587558            0.570928            1.156995
 C            3.379894            1.049784            1.875140
 C            3.517825            1.748603            3.036982
 C            2.360051            2.213239            3.760222
 C            1.108620            1.961870            3.299599
 C            0.903149            1.226642            2.064741
 C           -0.371667            0.969257            1.583455
 C           -0.569110            0.261522            0.368135
 C           -1.870928           -0.007871           -0.134136
 C           -2.053913           -0.698685           -1.321704
 C           -3.376939           -0.999603           -1.860152
 C           -4.585896           -0.556413           -1.121461
 C           -5.222132            0.657926           -1.460744
 C           -4.706664            1.523323           -2.480341
 C           -5.350387            2.689919           -2.827716
 C           -4.837065            3.569353           -3.869012
 C           -5.495177            4.702695           -4.212026
 C           -6.728140            5.072406           -3.546140
 C           -7.243941            4.296902           -2.561941
 C           -6.579638            3.068034           -2.150680
 C           -7.082117            2.264238           -1.152216
 C           -6.427107            1.047106           -0.776109
 C           -6.950824            0.229596            0.238571
 C           -6.321232           -0.968683            0.591984
 C           -6.833412           -1.831191            1.617486
 C           -6.187177           -3.003617            1.925800
 C           -6.650830           -3.932528            2.942636
 C           -5.968557           -5.073043            3.204210
 C           -4.753301           -5.398948            2.480869
 C           -4.269730           -4.578778            1.520182
 C           -4.967310           -3.337001            1.186325
 N           -4.468038           -2.562495            0.226996
 C           -5.118809           -1.372717           -0.097070
 C           -3.515318           -1.684837           -3.030140
 C           -2.357806           -2.128237           -3.766698
 C           -1.105931           -1.873360           -3.308916
 C           -0.899570           -1.150322           -2.066922
 C            0.375627           -0.891669           -1.586827
 C            0.573545           -0.189896           -0.368033
 C            1.875100            0.073081            0.138793
 C            2.057535            0.762126            1.327571
 H            6.958033            6.010502           -3.411058
 H            4.893014            6.633789           -2.235285
 H            3.796292            5.044471           -0.627567
 H            7.957803            1.530132           -1.890266
 H            8.012138            3.774729           -3.057741
 H            7.850992           -0.636932           -0.667225
 H            7.771580           -2.740992            0.566125
 H            7.730575           -4.865455            1.848237
 H            6.601651           -6.334286            3.521407
 H            4.512672           -5.625332            4.611472
 H            3.484800           -3.411563            4.081974
 H            3.566808           -1.277022            2.848659
 H            4.501438            1.981745            3.442444
 H            2.527725            2.771011            4.680355
 H            0.225533            2.307171            3.834760
 H           -1.245919            1.312078            2.136252
 H           -2.733865            0.334908            0.439412
 H           -3.779321            1.234126           -2.981978
 H           -3.906986            3.277798           -4.357304
 H           -5.121856            5.365699           -4.991256
 H           -7.219112            5.990560           -3.865892
 H           -8.168495            4.563319           -2.051402
 H           -7.996929            2.538039           -0.627215
 H           -7.862656            0.531227            0.754149
 H           -7.743436           -1.535167            2.140302
 H           -7.563753           -3.676026            3.478849
 H           -6.307358           -5.779107            3.961537
 H           -4.246899           -6.328328            2.742046
 H           -3.356804           -4.795456            0.960764
 H           -4.498985           -1.924120           -3.431639
 H           -2.525815           -2.674504           -4.693572
 H           -0.223230           -2.205880           -3.852684
 H            1.249514           -1.228438           -2.143787
 H            2.738119           -0.275254           -0.431286

