96

 C           -5.908002            2.869381           -6.953249
 C           -6.452417            3.125842           -5.739619
 C           -6.009190            2.409132           -4.551511
 C           -6.548991            2.655882           -3.309465
 C           -6.100432            1.944969           -2.148768
 C           -6.644505            2.197955           -0.879314
 C           -6.196036            1.496990            0.248139
 C           -6.708909            1.728200            1.565183
 C           -6.223740            1.014721            2.636732
 C           -6.691283            1.221010            3.996154
 C           -6.179966            0.499289            5.021607
 C           -5.163559           -0.505101            4.791224
 C           -4.683354           -0.756747            3.545657
 C           -3.659741           -1.807943            3.328330
 C           -4.043233           -3.099252            3.125321
 C           -3.060998           -4.142947            2.962705
 C           -1.734686           -3.861162            3.016993
 C           -1.270144           -2.500309            3.217573
 C            0.082845           -2.200191            3.263149
 C            0.533573           -0.864352            3.434579
 C            1.917374           -0.545107            3.483582
 C            2.347669            0.764579            3.629112
 C            3.760584            1.126217            3.687666
 C            4.784981            0.053753            3.665543
 C            5.254411           -0.468128            2.372440
 N            4.728097            0.006317            1.246969
 C            5.168617           -0.496704            0.024075
 C            4.585262            0.000662           -1.154481
 C            4.999138           -0.475272           -2.406830
 C            4.416666            0.014241           -3.621822
 C            4.826912           -0.452050           -4.850017
 C            4.245973            0.037648           -6.092895
 C            4.661632           -0.435767           -7.292046
 C            5.698728           -1.445197           -7.370458
 C            6.275091           -1.934349           -6.246374
 C            5.869465           -1.463556           -4.928981
 C            6.441738           -1.949158           -3.775007
 C            6.030489           -1.478213           -2.485508
 C            6.607987           -1.975179           -1.306073
 C            6.195731           -1.507744           -0.051058
 C            6.743573           -1.992613            1.180144
 C            6.292112           -1.503096            2.383955
 C            6.796133           -1.971813            3.662812
 C            6.316365           -1.466196            4.823792
 C            5.297905           -0.437729            4.823501
 C            4.144201            2.429844            3.785446
 C            3.162015            3.483692            3.856937
 C            1.835651            3.197877            3.836955
 C            1.371097            1.827253            3.721246
 C            0.018023            1.525799            3.688509
 C           -0.432862            0.186157            3.550992
 C           -1.816695           -0.134879            3.517070
 C           -2.246714           -1.443432            3.361421
 C           -5.187239            0.007373            2.393769
 N           -4.691991           -0.233650            1.183204
 C           -5.166523            0.497206            0.095427
 C           -4.616404            0.243889           -1.173399
 C           -5.066288            0.952754           -2.296441
 C           -4.518785            0.713389           -3.599549
 C           -4.964230            1.408110           -4.700944
 C           -4.419305            1.173671           -6.031436
 C           -4.869103            1.869870           -7.102774
 H           -6.230478            3.400384           -7.847710
 H           -7.235180            3.872632           -5.612140
 H           -7.333404            3.401958           -3.184466
 H           -7.424842            2.950694           -0.768875
 H           -7.486584            2.481300            1.696412
 H           -7.461083            1.975501            4.155269
 H           -6.515230            0.647304            6.047910
 H           -4.794124           -1.058153            5.656739
 H           -5.095316           -3.376268            3.076897
 H           -3.421863           -5.156959            2.798289
 H           -0.982286           -4.640324            2.904590
 H            0.823313           -2.992364            3.157417
 H            2.643119           -1.354466            3.390958
 H            3.803073            0.760206           -1.075383
 H            3.633930            0.769631           -3.545492
 H            3.467816            0.796764           -6.017497
 H            4.234491           -0.076708           -8.227197
 H            5.993015           -1.791203           -8.360257
 H            7.056207           -2.692403           -6.289626
 H            7.223597           -2.706879           -3.820613
 H            7.385576           -2.736309           -1.367235
 H            7.520094           -2.757136            1.139241
 H            7.566402           -2.742311            3.649081
 H            6.679146           -1.812476            5.791329
 H            4.954103           -0.066870            5.790804
 H            5.196232            2.710238            3.808073
 H            3.523164            4.508395            3.928838
 H            1.083187            3.982623            3.898676
 H           -0.722431            2.321863            3.759190
 H           -2.542755            0.674821            3.604149
 H           -3.831949           -0.511682           -1.266225
 H           -3.734542           -0.038280           -3.694410
 H           -3.639976            0.418158           -6.127845
 H           -4.469232            1.702485           -8.101785

