86

 C           15.212808           -1.345992           -2.078384
 C           14.242066           -2.121634           -1.565529
 C           13.032482           -1.388559           -1.177339
 C           11.880718           -1.879293           -0.634509
 C           10.795074           -0.979298           -0.325343
 C            9.596498           -1.455475            0.227297
 C            8.536404           -0.586264            0.524719
 C            8.684239            0.819656            0.263371
 C            9.882004            1.297442           -0.286875
 C           10.938993            0.426514           -0.588699
 C           12.170518            0.920585           -1.162696
 C           13.158238            0.034624           -1.437652
 S           14.740435            0.357959           -2.134777
 C            7.594265            1.718524            0.571510
 C            6.458244            1.203165            1.099820
 S            4.998139            2.066320            1.566587
 C            4.190415            0.574059            2.102322
 C            2.849035            0.706530            2.659602
 C            2.693605            1.044660            3.972704
 C            1.379925            1.179343            4.550298
 C            0.269746            0.969920            3.798631
 C            0.374458            0.611463            2.395534
 C           -0.756509            0.400792            1.621128
 C           -0.652968            0.066499            0.244562
 C           -1.804969           -0.142971           -0.560799
 C           -1.693587           -0.470197           -1.903262
 C           -2.855843           -0.695884           -2.759710
 C           -4.197057           -0.565937           -2.201815
 C           -4.947743            0.523767           -1.951507
 C           -6.276577            0.221958           -1.415234
 C           -7.268093            1.093984           -1.069875
 C           -8.520226            0.589444           -0.557977
 C           -8.711063           -0.828222           -0.414837
 C           -9.927411           -1.314185            0.085043
 C          -10.961504           -0.440401            0.451131
 C          -12.212765           -0.943642            0.971773
 C          -13.176401           -0.054667            1.314277
 S          -14.774359           -0.387593            1.969562
 C          -15.194287            1.328709            2.057272
 C          -14.195781            2.115175            1.619572
 C          -13.005450            1.381017            1.177701
 C          -11.834737            1.880786            0.685866
 C          -10.773729            0.977570            0.308236
 C           -9.556999            1.462114           -0.195482
 C           -7.645050           -1.730636           -0.789030
 C           -6.490206           -1.207298           -1.266349
 S           -5.051766           -2.072180           -1.792590
 C           -2.700213           -1.031419           -4.073569
 C           -1.386714           -1.165137           -4.651580
 C           -0.276362           -0.957805           -3.899348
 C           -0.381067           -0.601917           -2.495672
 C            0.750081           -0.393327           -1.720632
 C            0.646639           -0.060003           -0.343927
 C            1.798803            0.149109            0.461687
 C            1.687075            0.479296            1.803330
 C            4.971355           -0.510319            1.935773
 C            6.287845           -0.214724            1.366522
 C            7.302529           -1.083186            1.086032
 H           16.188160           -1.631514           -2.437859
 H           14.297894           -3.194856           -1.430397
 H           11.754901           -2.940240           -0.426231
 H            9.486895           -2.521532            0.428397
 H            9.994025            2.364033           -0.484338
 H           12.267942            1.987378           -1.357823
 H            7.718560            2.781367            0.369756
 H            3.555281            1.220446            4.618515
 H            1.314289            1.453653            5.602673
 H           -0.729800            1.067822            4.221715
 H           -1.748606            0.491373            2.064267
 H           -2.789075           -0.044741           -0.097775
 H           -4.639143            1.548001           -2.122726
 H           -7.141590            2.170451           -1.170395
 H          -10.072385           -2.389735            0.191682
 H          -12.343899           -2.019742            1.074126
 H          -16.164064            1.612196            2.433141
 H          -14.217882            3.197240            1.577171
 H          -11.675441            2.951247            0.569461
 H           -9.414580            2.537445           -0.306314
 H           -7.801737           -2.802311           -0.676323
 H           -3.561682           -1.205134           -4.720290
 H           -1.321101           -1.437008           -5.704556
 H            0.723077           -1.055397           -4.322719
 H            1.742087           -0.484512           -2.163886
 H            2.782845            0.048133           -0.000896
 H            4.693481           -1.525954            2.190263
 H            7.208248           -2.151031            1.275099

