86

 C            5.987852           -6.397733           -0.704464
 C            5.209094           -5.531503           -0.033769
 C            5.525091           -4.122122           -0.287864
 C            4.929084           -3.011537            0.235181
 C            5.399483           -1.701133           -0.145960
 C            4.811780           -0.543293            0.384864
 C            5.260388            0.736243            0.025068
 C            6.339109            0.856776           -0.918159
 C            6.929935           -0.299647           -1.448347
 C            6.485399           -1.576769           -1.079173
 C            7.098880           -2.769629           -1.618930
 C            6.624737           -3.976443           -1.225312
 S            7.181925           -5.571371           -1.715428
 C            6.806007            2.166664           -1.311071
 C            6.205147            3.254983           -0.773617
 S            6.574289            4.947909           -1.077115
 C            5.317521            5.512372            0.033025
 C            4.656647            4.491408            0.604742
 C            5.119924            3.164695            0.184241
 C            4.662316            1.935279            0.583375
 C            3.585517            1.820946            1.596470
 C            3.900590            1.813989            2.922292
 C            2.868593            1.734139            3.926608
 C            1.560530            1.672908            3.570831
 C            1.166825            1.673576            2.173116
 C           -0.167097            1.614117            1.799012
 C           -0.545931            1.597885            0.430169
 C           -1.909669            1.542690            0.034849
 C           -2.268791            1.506885           -1.303367
 C           -3.660326            1.457048           -1.740962
 C           -4.744132            1.497226           -0.729674
 C           -5.264588            2.693858           -0.308441
 C           -4.865517            4.050254           -0.699120
 C           -5.579555            5.025081           -0.110997
 S           -6.812940            4.376219            0.979020
 C           -6.359429            2.710286            0.642520
 C           -6.910924            1.582351            1.150378
 C           -6.376949            0.305689            0.734353
 C           -5.284222            0.258687           -0.199285
 C           -4.766023           -0.989056           -0.576680
 C           -5.300388           -2.185528           -0.076110
 C           -4.758777           -3.462592           -0.475316
 C           -5.306544           -4.612258            0.014906
 C           -4.917200           -5.998552           -0.263085
 C           -5.663210           -6.916470            0.375253
 S           -6.913524           -6.171945            1.381878
 C           -6.427349           -4.541222            0.935779
 C           -6.966808           -3.368058            1.346738
 C           -6.404511           -2.135008            0.842550
 C           -6.916337           -0.889572            1.232330
 C           -3.972653            1.392107           -3.065850
 C           -2.937238            1.384625           -4.069727
 C           -1.629198            1.450787           -3.714443
 C           -1.237865            1.517374           -2.317619
 C            0.095712            1.587542           -1.943786
 C            0.473444            1.634151           -0.575296
 C            1.836163            1.711447           -0.179829
 C            2.195694            1.735435            1.158600
 H            5.966872           -7.475445           -0.694907
 H            4.407853           -5.798140            0.644794
 H            4.100994           -3.084380            0.938636
 H            3.984641           -0.641844            1.093067
 H            7.750253           -0.202612           -2.160283
 H            7.922259           -2.664110           -2.323238
 H            7.625357            2.240286           -2.024447
 H            5.174902            6.572255            0.167147
 H            3.842513            4.581553            1.316607
 H            4.936726            1.872710            3.257270
 H            3.176287            1.729712            4.971930
 H            0.769811            1.620265            4.318701
 H           -0.949761            1.577090            2.557474
 H           -2.678456            1.529058            0.810657
 H           -4.053474            4.195214           -1.404341
 H           -5.489195            6.093286           -0.222804
 H           -7.739552            1.600289            1.856609
 H           -3.926265           -1.031428           -1.275525
 H           -3.917364           -3.479359           -1.166404
 H           -4.093138           -6.210713           -0.933484
 H           -5.589076           -7.991399            0.343099
 H           -7.805910           -3.318473            2.038523
 H           -7.749382           -0.848381            1.934846
 H           -5.009716            1.349565           -3.400390
 H           -3.242634            1.329548           -5.114235
 H           -0.836812            1.454432           -4.462389
 H            0.878831            1.606136           -2.702463
 H            2.603657            1.752098           -0.956000

