86

 C            5.901392            6.738162           -1.804708
 C            6.697571            5.696297           -2.101122
 C            6.293744            4.435768           -1.469462
 C            6.884887            3.209811           -1.568080
 C            6.325860            2.086989           -0.853097
 C            5.153425            2.270881           -0.042656
 C            4.541400            3.578302            0.036924
 C            5.104578            4.600247           -0.652011
 S            4.577944            6.276772           -0.725691
 C            4.624278            1.180058            0.661927
 C            5.216891           -0.089147            0.594725
 C            6.380364           -0.277672           -0.228882
 C            6.909590            0.814336           -0.933448
 C            6.994945           -1.580101           -0.323720
 C            6.469163           -2.627910            0.373835
 C            6.933781           -4.018175            0.418557
 C            6.198810           -4.815166            1.213647
 S            4.867922           -3.941522            1.984009
 C            5.302231           -2.425021            1.210898
 C            4.686715           -1.218250            1.339979
 C            3.522711           -1.039395            2.238845
 C            3.722251           -0.720871            3.548793
 C            2.605756           -0.551188            4.445892
 C            1.332665           -0.707298            4.002936
 C            1.061829           -1.047314            2.617562
 C           -0.235518           -1.217441            2.158537
 C           -0.497326           -1.545235            0.801779
 C           -1.822271           -1.728390            0.321928
 C           -2.067738           -2.041713           -1.005783
 C           -3.415026           -2.243566           -1.529094
 C           -4.574913           -2.123113           -0.615320
 C           -5.107244           -3.214208           -0.000563
 S           -4.562445           -4.880961           -0.106860
 C           -5.837327           -5.457550            0.974783
 C           -6.632281           -4.458898            1.397138
 C           -6.264488           -3.140453            0.870607
 C           -6.866404           -1.937956            1.100097
 C           -6.341923           -0.745837            0.478114
 C           -6.949394            0.499872            0.697408
 C           -6.452820            1.668843            0.102575
 C           -5.291815            1.588286           -0.740430
 C           -4.769750            2.791291           -1.349141
 C           -5.402801            3.965344           -1.110376
 S           -4.989199            5.562334           -1.720404
 C           -6.344312            6.330975           -0.882792
 C           -7.071057            5.445169           -0.179635
 C           -6.581595            4.065420           -0.267863
 C           -7.089985            2.945481            0.323213
 C           -4.685654            0.343290           -0.961707
 C           -5.188581           -0.827750           -0.376666
 C           -3.615857           -2.543599           -2.843118
 C           -2.501706           -2.673118           -3.749799
 C           -1.229283           -2.499743           -3.311109
 C           -0.956819           -2.180512           -1.921085
 C            0.340682           -2.011074           -1.461973
 C            0.603331           -1.694945           -0.102573
 C            1.928992           -1.525350            0.380574
 C            2.174255           -1.211577            1.708243
 H            5.976921            7.762007           -2.133549
 H            7.569918            5.731616           -2.741889
 H            7.774897            3.052075           -2.174055
 H            3.647678            3.702880            0.647134
 H            3.730715            1.322171            1.275613
 H            7.793671            0.670724           -1.554771
 H            7.873266           -1.698520           -0.955207
 H            7.798208           -4.325151           -0.156546
 H            6.324964           -5.866099            1.418937
 H            4.726956           -0.590849            3.952138
 H            2.822914           -0.299245            5.483231
 H            0.479159           -0.584601            4.669095
 H           -1.077997           -1.102164            2.840717
 H           -2.652004           -1.620993            1.023920
 H           -5.889533           -6.508246            1.211025
 H           -7.478875           -4.565437            2.063580
 H           -7.739442           -1.850516            1.743831
 H           -7.826251            0.559931            1.342228
 H           -3.884916            2.718370           -1.980294
 H           -6.488804            7.394298           -0.985539
 H           -7.946804            5.677455            0.413602
 H           -7.970851            2.986038            0.960897
 H           -3.802041            0.284995           -1.602889
 H           -4.619518           -2.696647           -3.240898
 H           -2.719488           -2.916643           -4.788962
 H           -0.377540           -2.595757           -3.983840
 H            1.182657           -2.121696           -2.145501
 H            2.759606           -1.651599           -0.317161

