86

 C            6.274365            5.999419           -2.358176
 C            5.467674            5.393513           -1.469906
 C            5.734420            3.961652           -1.297096
 C            5.101300            3.072348           -0.478137
 C            5.526672            1.692929           -0.454615
 C            6.608164            1.266502           -1.299655
 C            7.010289           -0.076186           -1.274409
 C            6.381426           -1.007342           -0.434862
 C            6.804884           -2.388844           -0.422795
 C            6.168310           -3.252977            0.403223
 S            6.482046           -4.971274            0.610722
 C            5.207791           -5.146898            1.825454
 C            4.580304           -3.983443            2.067730
 C            5.086405           -2.852626            1.282124
 C            4.669480           -1.546264            1.299815
 C            3.596825           -1.107697            2.224984
 C            3.917444           -0.656732            3.470389
 C            2.888269           -0.260588            4.399941
 C            1.577931           -0.337679            4.055942
 C            1.178738           -0.804957            2.740382
 C           -0.157426           -0.889222            2.379092
 C           -0.541815           -1.329667            1.084597
 C           -1.907895           -1.428830            0.706030
 C           -2.272608           -1.842601           -0.565579
 C           -3.666466           -1.963180           -0.981703
 C           -4.745034           -1.690144           -0.001399
 C           -5.219293           -2.687009            0.812248
 C           -4.774441           -4.082014            0.901689
 C           -5.450120           -4.819093            1.799605
 S           -6.699026           -3.875692            2.624591
 C           -6.307227           -2.412100            1.730970
 C           -6.895855           -1.196674            1.833792
 C           -6.412088           -0.123073            0.996284
 C           -6.991719            1.152336            1.066278
 C           -6.530470            2.204555            0.262999
 C           -5.437278            1.972775           -0.640739
 C           -4.948915            3.052652           -1.465183
 C           -5.535260            4.282428           -1.386025
 C           -5.201978            5.502111           -2.129360
 C           -5.975454            6.558846           -1.826085
 S           -7.186421            6.163547           -0.597937
 C           -6.643396            4.495087           -0.471739
 C           -7.134298            3.516742            0.327062
 C           -4.861358            0.695466           -0.710885
 C           -5.328469           -0.363455            0.081934
 C           -3.984776           -2.341536           -2.251597
 C           -2.953097           -2.647516           -3.211807
 C           -1.642807           -2.573079           -2.866881
 C           -1.245483           -2.169856           -1.529671
 C            0.090504           -2.092417           -1.166130
 C            0.474102           -1.680379            0.137979
 C            1.839390           -1.606212            0.525069
 C            2.204286           -1.185663            1.794462
 C            5.306502           -0.582404            0.420756
 C            4.900021            0.759801            0.384895
 C            7.260720            2.228320           -2.159703
 C            6.827498            3.512133           -2.140953
 S            7.437917            4.873789           -3.072544
 H            6.289804            7.033017           -2.664628
 H            4.676942            5.873069           -0.905668
 H            4.276328            3.375008            0.165177
 H            7.826708           -0.403511           -1.919034
 H            7.621673           -2.694115           -1.074882
 H            5.031701           -6.116490            2.262166
 H            3.763840           -3.836957            2.767581
 H            4.955533           -0.589876            3.797767
 H            3.200272            0.094238            5.381707
 H            0.789798           -0.051195            4.751824
 H           -0.937253           -0.613511            3.089660
 H           -2.673902           -1.171382            1.440994
 H           -3.962021           -4.434686            0.274442
 H           -5.323734           -5.858064            2.057239
 H           -7.718250           -0.998935            2.519463
 H           -7.816521            1.327557            1.757827
 H           -4.115498            2.859056           -2.138888
 H           -4.393362            5.497938           -2.850238
 H           -5.941879            7.559822           -2.225382
 H           -7.964403            3.680487            1.012095
 H           -4.029198            0.523391           -1.398777
 H           -5.023580           -2.428730           -2.571840
 H           -3.263273           -2.943219           -4.213451
 H           -0.853387           -2.810709           -3.579466
 H            0.870763           -2.346705           -1.884140
 H            2.604473           -1.889197           -0.201380
 H            4.075590            1.087377            1.023922
 H            8.079329            1.894893           -2.795158

