86

 C            6.699861            1.179241           -7.202956
 C            5.799121            0.555438           -6.424099
 C            6.077111            0.657354           -4.987429
 C            5.365220            0.138495           -3.945103
 C            5.812952            0.361100           -2.590233
 C            5.103077           -0.160669           -1.498319
 C            5.526831            0.063902           -0.179528
 C            6.710618            0.845022            0.055507
 C            7.427329            1.358533           -1.035029
 C            7.003406            1.131593           -2.351935
 C            7.743094            1.663760           -3.474589
 C            7.281734            1.425373           -4.725886
 S            7.976134            1.953144           -6.253142
 C            7.141523            1.091378            1.413005
 C            6.411803            0.570904            2.429317
 S            6.709283            0.729110            4.155573
 C            5.311191           -0.259038            4.577064
 C            4.641071           -0.688408            3.487198
 C            3.453457           -1.561244            3.529240
 C            3.606260           -2.899701            3.737627
 C            2.459602           -3.770195            3.820234
 C            1.202893           -3.270135            3.709632
 C            0.981188           -1.852439            3.487293
 C           -0.299401           -1.330011            3.386036
 C           -0.511468            0.052855            3.141555
 C           -1.818818            0.601851            3.048283
 C           -2.015222            1.947027            2.778333
 C           -3.343614            2.545697            2.694285
 C           -4.530255            1.715519            2.972211
 C           -5.161302            1.658345            4.163540
 S           -6.570732            0.599510            4.122790
 C           -6.332837            0.201185            2.426241
 C           -7.095647           -0.607013            1.651000
 C           -6.711526           -0.806395            0.271846
 C           -5.536201           -0.152602           -0.236069
 C           -5.156568           -0.362404           -1.570503
 C           -5.903146           -1.194871           -2.417937
 C           -5.500629           -1.418347           -3.786686
 C           -6.248453           -2.230887           -4.588516
 C           -6.018720           -2.592277           -5.991414
 C           -6.947449           -3.417508           -6.504841
 S           -8.193635           -3.833569           -5.320052
 C           -7.445942           -2.860224           -4.060284
 C           -7.865466           -2.684733           -2.784007
 C           -7.086422           -1.835291           -1.910917
 C           -7.465593           -1.629435           -0.576886
 C           -4.766046            0.707699            0.631235
 C           -5.153506            0.884421            1.927648
 C           -3.497328            3.863474            2.382207
 C           -2.350143            4.704490            2.144012
 C           -1.092975            4.203170            2.243237
 C           -0.870468            2.806303            2.571753
 C            0.410100            2.286786            2.687246
 C            0.622136            0.913368            2.980880
 C            1.929112            0.371800            3.114273
 C            2.125824           -0.976480            3.368704
 C            5.222921           -0.232568            2.212755
 C            4.792991           -0.476033            0.940723
 H            6.727884            1.255606           -8.277980
 H            4.929299            0.013567           -6.774718
 H            4.459155           -0.442675           -4.106606
 H            4.203893           -0.751845           -1.677073
 H            8.328659            1.945621           -0.855482
 H            8.647086            2.239486           -3.281924
 H            8.037619            1.686905            1.579791
 H            5.089185           -0.450481            5.615304
 H            4.595226           -3.344275            3.851614
 H            2.639234           -4.832743            3.980889
 H            0.326294           -3.913157            3.782896
 H           -1.167599           -1.980915            3.491974
 H           -2.674800           -0.060453            3.194187
 H           -4.904587            2.166687            5.079932
 H           -7.984640           -1.111018            2.026611
 H           -4.263237            0.131163           -1.955751
 H           -4.598998           -0.929990           -4.152048
 H           -5.159185           -2.201498           -6.522192
 H           -7.011941           -3.829134           -7.499139
 H           -8.764319           -3.157484           -2.391339
 H           -8.361119           -2.118712           -0.192416
 H           -3.882002            1.204809            0.230565
 H           -4.486980            4.315391            2.311144
 H           -2.530192            5.748996            1.891806
 H           -0.216410            4.829406            2.079288
 H            1.278412            2.931870            2.550537
 H            2.784787            1.042784            3.012063
 H            3.901143           -1.073379            0.748144

