80

 C           -5.822615            2.114971            2.232746
 C           -4.642744            1.615148            2.661978
 C           -4.225726            0.269553            2.286829
 C           -2.928183           -0.222691            2.808833
 C           -2.839266           -0.686344            4.086868
 C           -1.592985           -1.196233            4.603695
 C           -0.482486           -1.228847            3.824380
 C           -0.515402           -0.736336            2.458917
 C            0.616000           -0.756365            1.657113
 C            0.582435           -0.260690            0.326429
 C            1.734826           -0.274578           -0.504799
 C            1.693034            0.216879           -1.800375
 C            2.861641            0.224635           -2.674774
 C            4.157170           -0.276090           -2.155362
 C            5.031974            0.543900           -1.521827
 C            6.314036            0.048083           -1.035471
 C            7.209093            0.864311           -0.400532
 C            8.482572            0.371130            0.073144
 C            9.381656            1.205137            0.714844
 C           10.624069            0.696474            1.176710
 C           11.643575            1.375384            1.842226
 S           12.915078            0.313632            2.180567
 C           12.196157           -1.048367            1.482456
 C           10.945417           -0.712457            0.966398
 C           10.010402           -1.548519            0.300533
 C            8.803517           -1.033163           -0.139677
 C            7.832237           -1.864424           -0.815700
 C            6.635192           -1.363860           -1.247660
 C            5.645700           -2.196717           -1.925853
 C            4.471874           -1.684932           -2.358170
 C            2.772969            0.690120           -3.951981
 C            1.527091            1.203082           -4.466932
 C            0.417781            1.238159           -3.686231
 C            0.451542            0.744986           -2.320966
 C           -0.678684            0.767370           -1.517846
 C           -0.644244            0.270394           -0.187681
 C           -1.797350            0.283096            0.642301
 C           -1.757626           -0.211458            1.936712
 C           -5.011761           -0.501956            1.495189
 C           -6.296948           -0.017746            1.005824
 C           -7.103350           -0.786902            0.213087
 C           -8.379961           -0.305830           -0.264865
 C           -9.188546           -1.091213           -1.067687
 C          -10.435910           -0.594524           -1.529722
 C          -11.373156           -1.230068           -2.342292
 S          -12.692411           -0.206122           -2.607334
 C          -12.100486            1.083120           -1.686634
 C          -10.858831            0.750034           -1.147659
 C          -10.015421            1.536530           -0.318645
 C           -8.802001            1.034198            0.118262
 C           -7.922646            1.817035            0.958316
 C           -6.719659            1.329999            1.388961
 H           -6.145075            3.121139            2.500997
 H           -3.966970            2.191045            3.293915
 H           -3.706459           -0.692392            4.746907
 H           -1.579279           -1.555542            5.631846
 H            0.462317           -1.622473            4.197334
 H            1.554573           -1.154347            2.043254
 H            2.664209           -0.683344           -0.102963
 H            4.805994            1.597964           -1.358728
 H            6.984431            1.917732           -0.232939
 H            9.155332            2.257269            0.877567
 H           11.648211            2.415909            2.113375
 H           12.659813           -2.018169            1.456642
 H           10.263668           -2.595795            0.147330
 H            8.089761           -2.912239           -0.970373
 H            5.893720           -3.248599           -2.068086
 H            3.727330           -2.296188           -2.867501
 H            3.638747            0.692612           -4.613823
 H            1.512602            1.561679           -5.495349
 H           -0.526797            1.633817           -4.057568
 H           -1.616854            1.168094           -1.902074
 H           -2.725668            0.693775            0.239913
 H           -4.709461           -1.508179            1.203564
 H           -6.802918           -1.792318           -0.082142
 H           -8.886793           -2.095694           -1.358693
 H          -11.296264           -2.220544           -2.753676
 H          -12.627338            2.011207           -1.555405
 H          -10.343829            2.535617           -0.038772
 H           -8.255245            2.816541            1.238504

