78

 C           10.732252            0.776933            1.342092
 C           10.117587            1.797691            0.613384
 C            8.863566            1.587174            0.018181
 C            8.225565            0.324519            0.166172
 C            8.861837           -0.710591            0.905691
 C           10.115853           -0.467768            1.488758
 C            8.187095           -1.991914            1.031641
 C            6.974131           -2.208708            0.468839
 C            6.295470           -1.170119           -0.289541
 C            5.043728           -1.384258           -0.885533
 C            4.431989           -0.365208           -1.627267
 C            3.140146           -0.624930           -2.311347
 C            3.140790           -1.032773           -3.611706
 C            1.904899           -1.293427           -4.307525
 C            0.712282           -1.136473           -3.679937
 C            0.650908           -0.703271           -2.295655
 C           -0.564648           -0.539736           -1.648841
 C           -0.624619           -0.114654           -0.295338
 C           -1.864931            0.055751            0.377213
 C           -1.913819            0.471352            1.698633
 C           -3.169949            0.654900            2.418559
 C           -4.456420            0.387608            1.727129
 C           -5.025446           -0.890993            1.793591
 C           -6.261839           -1.146799            1.182372
 C           -6.929313           -0.099835            0.488418
 C           -6.340953            1.193414            0.419554
 C           -5.103560            1.422619            1.039518
 C           -7.051941            2.244555           -0.290365
 C           -8.247547            2.010740           -0.882676
 C           -8.870870            0.698360           -0.837213
 C          -10.105225            0.437627           -1.453334
 C          -10.671841           -0.837136           -1.384854
 C          -10.026445           -1.870838           -0.702417
 C           -8.791214           -1.642619           -0.075058
 C           -8.203300           -0.349257           -0.144320
 C           -8.087878           -2.689223            0.648137
 C           -6.892653           -2.455609            1.241354
 C           -3.172974            1.066643            3.717380
 C           -1.937587            1.330058            4.413747
 C           -0.743901            1.172652            3.788036
 C           -0.679847            0.737041            2.404659
 C            0.536154            0.573981            1.758221
 C            0.597346            0.147689            0.405039
 C            1.837351           -0.023993           -0.268165
 C            1.885544           -0.440039           -1.589560
 C            5.047653            0.885797           -1.765692
 C            6.298383            1.126752           -1.178075
 C            6.933246            0.092977           -0.435465
 C            6.978413            2.404776           -1.314429
 C            8.190807            2.621426           -0.750396
 H           11.704776            0.953795            1.801555
 H           10.614219            2.760761            0.507224
 H           10.610992           -1.252714            2.058009
 H            8.696363           -2.773379            1.595775
 H            6.470776           -3.171005            0.563288
 H            4.545292           -2.347283           -0.778515
 H            4.072600           -1.173446           -4.159509
 H            1.965664           -1.617567           -5.345517
 H           -0.230453           -1.328494           -4.190586
 H           -1.496945           -0.737465           -2.178009
 H           -2.788995           -0.147771           -0.168305
 H           -4.503927           -1.686751            2.324747
 H           -4.642265            2.408577            0.990208
 H           -6.586818            3.229874           -0.324681
 H           -8.780908            2.800812           -1.411370
 H          -10.623986            1.231781           -1.987660
 H          -11.629393           -1.027498           -1.869575
 H          -10.484146           -2.857635           -0.657490
 H           -8.560933           -3.670085            0.696282
 H           -6.367554           -3.241552            1.784420
 H           -4.105506            1.207332            4.263837
 H           -1.999740            1.656463            5.450962
 H            0.197828            1.366689            4.299919
 H            1.467931            0.773759            2.287635
 H            2.761910            0.179336            0.276640
 H            4.551813            1.670854           -2.335805
 H            6.475976            3.181104           -1.891589
 H            8.701151            3.578744           -0.857004

