110

 C           17.073632            0.296742           -3.701640
 C           16.423299            1.017446           -4.780585
 C           15.130536            1.402825           -4.674732
 C           14.352154            1.107973           -3.476932
 C           13.041707            1.490926           -3.352770
 C           12.282730            1.191261           -2.165924
 C           10.951874            1.572899           -2.035883
 C           10.211855            1.269343           -0.865915
 C            8.853288            1.649234           -0.728530
 C            8.133348            1.346376            0.421962
 C            6.754326            1.732803            0.574120
 C            6.051084            1.433923            1.712539
 C            4.661591            1.835869            1.882876
 C            3.980384            1.538239            3.017921
 C            2.578979            1.978934            3.217072
 C            2.321536            3.226270            3.700610
 C            0.965976            3.678508            3.895497
 C           -0.082364            2.872182            3.592466
 C            0.133195            1.534918            3.069687
 C           -0.931232            0.707466            2.746117
 C           -0.715531           -0.603430            2.244239
 C           -1.798290           -1.456818            1.901284
 C           -1.577981           -2.739935            1.425286
 C           -2.668135           -3.636834            1.057244
 C           -4.067953           -3.162326            1.173009
 C           -4.705266           -2.573229            0.130115
 C           -6.092670           -2.144245            0.242266
 C           -6.752301           -1.553540           -0.804544
 C           -8.129106           -1.146809           -0.689018
 C           -8.804966           -0.550449           -1.747857
 C          -10.161714           -0.158839           -1.625578
 C          -10.857097            0.450192           -2.699807
 C          -12.186475            0.837285           -2.570287
 C          -12.900350            1.460426           -3.654910
 C          -14.209392            1.844498           -3.519629
 C          -14.942335            2.478503           -4.609736
 C          -16.234028            2.852293           -4.458832
 C          -16.928586            2.632356           -3.203591
 C          -16.299419            2.048414           -2.157331
 C          -14.907760            1.622081           -2.256700
 C          -14.253463            1.027790           -1.208240
 C          -12.878007            0.613787           -1.319318
 C          -12.205109            0.011100           -0.261230
 C          -10.848984           -0.384480           -0.382022
 C          -10.150885           -0.994449            0.691031
 C           -8.818470           -1.372487            0.562776
 C           -8.095941           -1.988001            1.647146
 C           -6.785168           -2.365133            1.508545
 C           -6.041403           -2.990333            2.597063
 C           -4.752016           -3.367308            2.442491
 C           -2.412183           -4.896913            0.607392
 C           -1.057575           -5.375224            0.479898
 C           -0.008668           -4.575646            0.799205
 C           -0.222724           -3.222747            1.280719
 C            0.842127           -2.394015            1.600720
 C            0.626981           -1.075059            2.081156
 C            1.709880           -0.213523            2.403946
 C            1.489157            1.067317            2.885773
 C            4.617997            0.790256            4.092941
 C            5.907627            0.397794            3.986186
 C            6.697634            0.701538            2.797631
 C            8.009568            0.321083            2.680380
 C            8.777577            0.628676            1.500407
 C           10.111574            0.254777            1.376008
 C           10.854431            0.557932            0.206817
 C           12.212614            0.176235            0.065699
 C           12.929506            0.473739           -1.088854
 C           14.307698            0.085539           -1.248783
 C           15.005605            0.382250           -2.391303
 C           16.400819           -0.006083           -2.567176
 H           18.115226            0.011947           -3.842481
 H           17.012584            1.232518           -5.670561
 H           14.627816            1.943191           -5.476127
 H           12.539604            2.033338           -4.153675
 H           10.459604            2.114677           -2.843142
 H            8.373797            2.187887           -1.545629
 H            6.284512            2.274679           -0.246697
 H            4.193216            2.387738            1.067527
 H            3.130116            3.912828            3.950526
 H            0.818095            4.683044            4.289534
 H           -1.111664            3.200621            3.731530
 H           -1.955969            1.056429            2.874341
 H           -2.817021           -1.081607            2.019001
 H           -4.202260           -2.407978           -0.823044
 H           -6.248542           -1.378663           -1.755220
 H           -8.291830           -0.376565           -2.693484
 H          -10.331609            0.614403           -3.640266
 H          -12.365389            1.618591           -4.591187
 H          -14.407070            2.637169           -5.545316
 H          -16.789851            3.326047           -5.266385
 H          -17.967065            2.953893           -3.139722
 H          -16.808225            1.877615           -1.209289
 H          -14.760880            0.854519           -0.259584
 H          -12.720793           -0.163959            0.682666
 H          -10.677713           -1.165725            1.629442
 H           -8.627357           -2.145555            2.585554
 H           -6.569444           -3.141681            3.538490
 H           -4.185564           -3.833660            3.248546
 H           -3.221000           -5.572857            0.331096
 H           -0.910682           -6.392243            0.119006
 H            1.019809           -4.922071            0.705401
 H            1.866470           -2.748729            1.486410
 H            2.728789           -0.580122            2.263421
 H            4.017201            0.568001            4.974834
 H            6.401251           -0.157175            4.783950
 H            8.507236           -0.226102            3.480868
 H           10.604584           -0.281819            2.186284
 H           12.694385           -0.360860            0.882386
 H           14.781104           -0.455554           -0.429891
 H           16.875787           -0.547859           -1.749996

