110

 C          -17.876408            2.089054           -0.445915
 C          -16.916436            1.504551           -1.199673
 C          -15.595678            1.217160           -0.650017
 C          -14.610223            0.624233           -1.396950
 C          -13.310357            0.345541           -0.840631
 C          -12.303748           -0.255527           -1.589542
 C          -11.028005           -0.520642           -1.029471
 C           -9.992595           -1.129463           -1.782946
 C           -8.742111           -1.375402           -1.224588
 C           -7.679025           -1.988399           -1.979874
 C           -6.449439           -2.224539           -1.420665
 C           -5.363313           -2.842362           -2.173948
 C           -4.161586           -3.087151           -1.604049
 C           -3.916317           -2.734332           -0.212342
 C           -2.589454           -3.061974            0.362641
 C           -2.377955           -4.283299            0.928255
 C           -1.101208           -4.617215            1.510050
 C           -0.085584           -3.717160            1.510825
 C           -0.252677           -2.403036            0.916234
 C            0.781246           -1.478654            0.907884
 C            0.618969           -0.198921            0.313729
 C            1.672446            0.754997            0.295237
 C            1.504955            2.000366           -0.290125
 C            2.568391            2.999108           -0.332669
 C            3.895197            2.672817            0.243203
 C            4.128181            2.994410            1.644520
 C            5.329730            2.750734            2.215237
 C            6.427489            2.164484            1.453550
 C            7.656932            1.930084            2.013827
 C            8.731514            1.348281            1.250119
 C            9.982039            1.104281            1.809247
 C           11.028747            0.526224            1.047124
 C           12.304759            0.263155            1.607536
 C           13.322359           -0.307844            0.849934
 C           14.622595           -0.584473            1.406393
 C           15.618640           -1.148228            0.650937
 C           16.939723           -1.433738            1.200791
 C           17.909997           -1.989806            0.438773
 C           17.664041           -2.319908           -0.953055
 C           16.458378           -2.078656           -1.517908
 C           15.372007           -1.480949           -0.749373
 C           14.145028           -1.229205           -1.306255
 C           13.079639           -0.638361           -0.537605
 C           11.832687           -0.382868           -1.096994
 C           10.788543            0.194687           -0.332016
 C            9.512893            0.449930           -0.893787
 C            8.490986            1.011570           -0.136014
 C            7.190736            1.271851           -0.697708
 C            6.187720            1.828986            0.053059
 C            4.874373            2.111175           -0.509848
 C            2.356901            4.219657           -0.899832
 C            1.080194            4.553043           -1.482019
 C            0.064734            3.653010           -1.482103
 C            0.232157            2.339052           -0.887022
 C           -0.801420            1.414670           -0.878607
 C           -0.638911            0.134869           -0.284314
 C           -1.692573           -0.818414           -0.265568
 C           -1.525498           -2.063907            0.319924
 C           -4.884455           -2.142940            0.532233
 C           -6.197638           -1.858508           -0.029940
 C           -7.189577           -1.271201            0.712568
 C           -8.489756           -1.008501            0.151786
 C           -9.500637           -0.416303            0.901116
 C          -10.776214           -0.159047            0.340062
 C          -11.809274            0.449303            1.096253
 C          -13.056165            0.706231            0.537366
 C          -14.110529            1.327701            1.297074
 C          -15.337588            1.580233            0.740718
 C          -16.413029            2.208285            1.500434
 C          -17.619084            2.449332            0.936399
 H          -18.865349            2.306957           -0.846601
 H          -17.095771            1.229096           -2.238269
 H          -14.787030            0.348105           -2.436164
 H          -12.487964           -0.530741           -2.627734
 H          -10.190010           -1.405130           -2.818522
 H           -7.883450           -2.261473           -3.014920
 H           -5.561371           -3.098771           -3.214685
 H           -3.344448           -3.550930           -2.156605
 H           -3.165981           -5.035641            0.960255
 H           -0.986231           -5.608642            1.946734
 H            0.881614           -3.952618            1.953072
 H            1.740864           -1.727610            1.360700
 H            2.626398            0.488379            0.754560
 H            3.302083            3.434550            2.203146
 H            5.519031            2.984601            3.262933
 H            7.852581            2.181015            3.056194
 H           10.170849            1.357666            2.852134
 H           12.480455            0.515832            2.652950
 H           14.791029           -0.330820            2.452742
 H           17.110666           -1.180598            2.246505
 H           18.899115           -2.206438            0.839791
 H           18.481398           -2.765497           -1.517942
 H           16.257047           -2.320530           -2.560924
 H           13.944277           -1.471552           -2.349669
 H           11.643970           -0.628623           -2.141663
 H            9.339236            0.197080           -1.939443
 H            7.027998            1.012910           -1.743908
 H            4.710968            1.859705           -1.558114
 H            3.144773            4.972260           -0.931978
 H            0.965223            5.544072           -1.919569
 H           -0.902572            3.887947           -1.924343
 H           -1.761117            1.662970           -1.331570
 H           -2.646419           -0.551691           -0.725031
 H           -4.711839           -1.868115            1.573202
 H           -7.017688           -0.989115            1.751341
 H           -9.318088           -0.140418            1.939451
 H          -11.611880            0.717872            2.133719
 H          -13.901317            1.592645            2.333350
 H          -16.203190            2.472829            2.536293
 H          -18.428616            2.917032            1.494718

