110

 C          -11.969827           -4.120056            1.539116
 C          -11.139406           -4.219371            2.725304
 C           -9.982693           -3.523522            2.820774
 C           -9.534577           -2.653237            1.739180
 C           -8.369732           -1.934422            1.820827
 C           -7.939477           -1.078196            0.745030
 C           -6.762953           -0.340357            0.822352
 C           -6.350847            0.498393           -0.243840
 C           -5.156749            1.258671           -0.171819
 C           -4.755819            2.082952           -1.218549
 C           -5.570983            2.156259           -2.410790
 C           -6.746255            1.416185           -2.491579
 C           -7.164834            0.581369           -1.426340
 C           -8.363114           -0.172628           -1.495385
 C           -8.761218           -0.989448           -0.442666
 C           -9.980022           -1.755286           -0.498206
 C          -10.367201           -2.558213            0.543343
 C          -11.602894           -3.332646            0.501697
 C           -5.142869            2.998692           -3.496042
 C           -3.982074            3.723475           -3.421953
 C           -3.543806            4.574246           -4.523304
 C           -2.398184            5.289513           -4.442910
 C           -1.570140            5.225603           -3.253825
 C           -1.928138            4.453100           -2.202134
 C           -3.153795            3.661844           -2.222043
 C           -3.543863            2.875678           -1.159054
 C           -2.742958            2.834975            0.090690
 C           -2.995934            3.724607            1.091560
 C           -2.219708            3.709790            2.307017
 C           -1.218040            2.810212            2.477145
 C           -0.908697            1.834906            1.446957
 C            0.110254            0.909057            1.612754
 C            0.403159           -0.048333            0.605503
 C            1.444754           -1.001800            0.763988
 C            1.721953           -1.933251           -0.224252
 C            2.783223           -2.926621           -0.089752
 C            3.591631           -2.960215            1.155360
 C            3.225970           -3.763914            2.213887
 C            2.018142           -4.582072            2.194697
 C            1.684536           -5.371817            3.241613
 C            2.521834           -5.427968            4.424591
 C            3.651391           -4.687549            4.504330
 C            4.062905           -3.816941            3.408177
 C            5.207048           -3.066020            3.481931
 C            5.608841           -2.204369            2.401788
 C            6.766584           -1.436826            2.482697
 C            7.159232           -0.583708            1.422215
 C            8.339265            0.198922            1.491388
 C            8.711727            1.033473            0.443316
 C            9.911804            1.828618            0.498957
 C           10.273698            2.648895           -0.538104
 C           11.490365            3.453054           -0.496404
 C           11.832422            4.257589           -1.529143
 C           10.993582            4.346097           -2.710196
 C            9.853390            3.623560           -2.805143
 C            9.432415            2.733583           -1.728691
 C            8.284895            1.987639           -1.810031
 C            7.881610            1.111997           -0.739353
 C            6.722990            0.346727           -0.816569
 C            6.337162           -0.510759            0.244674
 C            5.161270           -1.298486            0.172673
 C            4.785472           -2.140456            1.214740
 C            3.037001           -3.815213           -1.091228
 C            2.256895           -3.804252           -2.304184
 C            1.250755           -2.909202           -2.471538
 C            0.940799           -1.934391           -1.440929
 C           -0.080384           -1.010890           -1.605314
 C           -0.372842           -0.052873           -0.598313
 C           -1.412862            0.901979           -0.757851
 C           -1.687558            1.835977            0.228866
 H          -12.891235           -4.700109            1.519047
 H          -11.482804           -4.871029            3.527110
 H           -9.348969           -3.589123            3.704504
 H           -7.737395           -1.994055            2.706674
 H           -6.138795           -0.399368            1.714391
 H           -4.544635            1.184508            0.730310
 H           -7.363110            1.473231           -3.387819
 H           -8.976073           -0.103235           -2.393390
 H          -10.589109           -1.674978           -1.398060
 H          -12.215087           -3.248933           -0.395510
 H           -5.773585            3.043603           -4.383429
 H           -4.176562            4.608117           -5.409148
 H           -2.063117            5.927990           -5.258849
 H           -0.656148            5.817235           -3.242376
 H           -1.307824            4.393424           -1.305568
 H           -3.786849            4.469030            0.997581
 H           -2.464590            4.443681            3.074105
 H           -0.618506            2.791413            3.386602
 H            0.704082            0.904549            2.527111
 H            2.030411           -0.988426            1.686119
 H            1.390729           -4.528128            1.302810
 H            0.783901           -5.983474            3.230774
 H            2.206874           -6.081740            5.236390
 H            4.290741           -4.715181            5.385720
 H            5.844114           -3.104058            4.365161
 H            7.389521           -1.486476            3.375206
 H            8.958528            0.137192            2.385650
 H           10.527519            1.755966            1.394974
 H           12.109240            3.376989            0.396941
 H           12.739428            4.860006           -1.508946
 H           11.316948            5.011828           -3.508810
 H            9.213471            3.681091           -3.684916
 H            7.646291            2.039289           -2.691832
 H            6.092629            0.397905           -1.704696
 H            4.542932           -1.231784           -0.725773
 H            3.831820           -4.555818           -0.999900
 H            2.502519           -4.537317           -3.071782
 H            0.648358           -2.893271           -3.379064
 H           -0.675670           -1.007772           -2.518645
 H           -1.998415            0.888798           -1.679972

