110

 C            6.718617           -6.003664            6.404136
 C            7.205799           -4.805473            6.006467
 C            6.627499           -4.094812            4.871215
 C            7.108023           -2.880103            4.454514
 C            6.524138           -2.185870            3.335246
 C            7.003817           -0.952589            2.907258
 C            6.416147           -0.276720            1.808027
 C            6.895502            0.981923            1.366448
 C            6.310051            1.637869            0.288501
 C            6.778217            2.922070           -0.163768
 C            6.194680            3.564425           -1.225780
 C            6.656483            4.874580           -1.669466
 C            6.076030            5.501511           -2.718266
 C            4.984081            4.881761           -3.439628
 C            4.510362            3.661450           -3.076733
 C            3.410975            3.034424           -3.851879
 C            3.693397            2.303740           -4.966376
 C            2.635964            1.722811           -5.756647
 C            1.335676            1.903083           -5.412182
 C            0.976392            2.668454           -4.231851
 C           -0.348633            2.859575           -3.870344
 C           -0.692890            3.591207           -2.702527
 C           -2.046888            3.801982           -2.327205
 C           -2.372656            4.498406           -1.173753
 C           -3.753723            4.738286           -0.767421
 C           -4.857232            4.275967           -1.645429
 C           -5.335600            2.895789           -1.524009
 C           -4.780625            1.994052           -0.652483
 C           -5.272208            0.643998           -0.548348
 C           -4.705309           -0.275731            0.328426
 C           -5.201511           -1.599926            0.425567
 C           -4.632826           -2.544258            1.317628
 C           -5.125676           -3.841589            1.404700
 C           -4.556007           -4.809006            2.307763
 C           -5.040956           -6.089137            2.381937
 C           -4.470729           -7.079536            3.288760
 C           -4.958484           -8.340554            3.344152
 C           -6.069048           -8.744018            2.501190
 C           -6.640582           -7.867621            1.643164
 C           -6.159966           -6.494287            1.535703
 C           -6.726409           -5.593260            0.671476
 C           -6.238149           -4.241388            0.570158
 C           -6.805177           -3.322014           -0.305418
 C           -6.310565           -1.996273           -0.400935
 C           -6.879687           -1.053115           -1.292319
 C           -6.384469            0.244053           -1.381154
 C           -6.945216            1.209741           -2.289604
 C           -6.449176            2.485676           -2.375388
 C           -7.006143            3.456786           -3.309776
 C           -6.511372            4.713385           -3.388723
 C           -5.417780            5.133523           -2.537545
 C           -4.034370            5.398681            0.390763
 C           -2.974255            5.888641            1.237328
 C           -1.674254            5.711537            0.890943
 C           -1.316501            5.012175           -0.330131
 C            0.008438            4.826493           -0.694978
 C            0.352116            4.125400           -1.881442
 C            1.705483            3.938066           -2.271465
 C            2.031181            3.234048           -3.420213
 C            5.081243            2.940081           -1.935626
 C            4.611583            1.720210           -1.521448
 C            5.195475            1.027201           -0.401378
 C            4.715500           -0.206313            0.026656
 C            5.303637           -0.882174            1.125447
 C            4.823796           -2.140712            1.567942
 C            5.407495           -2.796247            2.646779
 C            4.928707           -4.075677            3.104085
 C            5.503909           -4.713051            4.173061
 C            5.026934           -6.007227            4.648110
 C            5.603609           -6.619456            5.708279
 H            7.142828           -6.541290            7.250946
 H            8.042466           -4.331013            6.518065
 H            7.947467           -2.407107            4.963590
 H            7.845967           -0.487908            3.419572
 H            7.737308            1.435953            1.888494
 H            7.614817            3.373171            0.369210
 H            7.483491            5.324743           -1.121581
 H            6.408616            6.482575           -3.055533
 H            4.559403            5.426065           -4.283107
 H            4.721439            2.143654           -5.291019
 H            2.918330            1.144028           -6.635034
 H            0.526552            1.480066           -6.006083
 H           -1.149596            2.443126           -4.481403
 H           -2.835105            3.400392           -2.967849
 H           -3.943273            2.280138           -0.011388
 H           -3.862820            0.018477            0.955176
 H           -3.793656           -2.237621            1.942072
 H           -3.722948           -4.489971            2.933876
 H           -3.638804           -6.761043            3.916023
 H           -4.539115           -9.087704            4.016324
 H           -6.419686           -9.771477            2.587532
 H           -7.475050           -8.155188            1.004706
 H           -7.563711           -5.879566            0.035630
 H           -7.644895           -3.615143           -0.934987
 H           -7.718876           -1.359481           -1.916027
 H           -7.780433            0.893437           -2.913812
 H           -7.832273            3.127875           -3.938992
 H           -6.915848            5.446075           -4.086102
 H           -5.062595            6.159194           -2.636958
 H           -5.062928            5.575980            0.704437
 H           -3.255194            6.405401            2.154119
 H           -0.863732            6.085318            1.515465
 H            0.810002            5.216711           -0.067465
 H            2.493387            4.360453           -1.643830
 H            3.774861            1.240574           -2.034849
 H            3.871355           -0.668985           -0.485474
 H            3.981042           -2.594547            1.046645
 H            4.090627           -4.524258            2.571177
 H            4.190166           -6.456930            4.114823
 H            5.254628           -7.585036            6.071217

