86

 C            6.630896           -4.906532           -3.300041
 C            5.270701           -5.314126           -3.029706
 C            4.558168           -4.728541           -2.033666
 C            5.143437           -3.682848           -1.212705
 C            4.435050           -3.075016           -0.187686
 C            5.026058           -2.056953            0.608490
 C            4.314234           -1.432247            1.667736
 C            4.895819           -0.434100            2.434592
 C            6.249844           -0.015154            2.148724
 C            6.958677           -0.625859            1.125338
 C            6.373357           -1.651665            0.336901
 C            7.089951           -2.281871           -0.715778
 C            6.504263           -3.276634           -1.482665
 C            7.221546           -3.932341           -2.562127
 C            6.836759            1.047759            2.945243
 C            6.133897            1.639639            3.943859
 C            4.788607            1.217267            4.246716
 C            4.192779            0.221490            3.532767
 C            2.821117           -0.223784            3.882731
 C            2.640542           -1.178831            4.837541
 C            1.315595           -1.605802            5.214551
 C            0.220111           -1.058475            4.629957
 C            0.353176           -0.039524            3.604100
 C           -0.760247            0.526497            3.002102
 C           -0.625242            1.510979            1.987353
 C           -1.759164            2.104179            1.369714
 C           -1.617041            3.054806            0.370896
 C           -2.760753            3.689115           -0.276882
 C           -4.132324            3.351757            0.178372
 C           -4.701406            4.050193            1.200583
 C           -6.045905            3.760383            1.634359
 C           -6.774326            2.789295            1.027938
 C           -6.216996            2.010639           -0.063652
 C           -6.953240            1.016991           -0.690623
 C           -6.397960            0.247100           -1.746920
 C           -7.143596           -0.773387           -2.395863
 C           -6.587451           -1.521780           -3.421368
 C           -7.334829           -2.567843           -4.097145
 C           -6.772785           -3.287992           -5.101061
 C           -5.413669           -3.031607           -5.521105
 C           -4.673871           -2.066188           -4.918116
 C           -5.228050           -1.265240           -3.840591
 C           -4.491530           -0.271234           -3.214669
 C           -5.051956            0.505464           -2.164955
 C           -4.311127            1.533320           -1.521463
 C           -4.864133            2.283668           -0.495088
 C           -2.580609            4.596499           -1.277204
 C           -1.255463            4.964965           -1.710851
 C           -0.159485            4.419182           -1.125433
 C           -0.291940            3.442900           -0.058889
 C            0.821774            2.879582            0.545555
 C            0.687053            1.913381            1.577690
 C            1.820642            1.336571            2.211726
 C            1.678185            0.382849            3.207490
 H            7.160041           -5.404748           -4.110720
 H            4.842716           -6.100828           -3.648939
 H            3.531645           -5.023510           -1.819052
 H            3.407002           -3.372249            0.020306
 H            3.289721           -1.753466            1.870299
 H            7.982945           -0.322476            0.910870
 H            8.114630           -1.968414           -0.912390
 H            8.245437           -3.613811           -2.753926
 H            7.855590            1.352387            2.710274
 H            6.561196            2.441475            4.545006
 H            4.267724            1.715716            5.064159
 H            3.489778           -1.641078            5.340904
 H            1.229355           -2.374868            5.981033
 H           -0.786835           -1.366716            4.908347
 H           -1.762240            0.217765            3.300565
 H           -2.754762            1.795163            1.696419
 H           -4.159080            4.845703            1.711694
 H           -6.451418            4.348679            2.456734
 H           -7.792840            2.564384            1.341184
 H           -7.976579            0.812400           -0.377374
 H           -8.167115           -0.959978           -2.072627
 H           -8.357690           -2.749297           -3.769297
 H           -7.324798           -4.073404           -5.614677
 H           -5.008903           -3.635954           -6.331333
 H           -3.647883           -1.862199           -5.222343
 H           -3.464746           -0.072952           -3.522595
 H           -3.287472            1.725151           -1.851679
 H           -3.430531            5.068553           -1.770217
 H           -1.169434            5.693861           -2.515628
 H            0.847463            4.693359           -1.437519
 H            1.823771            3.171551            0.230463
 H            2.816273            1.658708            1.897788

