86

 C           -8.561085            2.071076           -2.438023
 C           -7.490391            1.721186           -3.343466
 C           -6.460591            0.939817           -2.929010
 C           -6.409487            0.433039           -1.569035
 C           -5.374049           -0.377156           -1.129244
 C           -5.341489           -0.877899            0.200388
 C           -6.394953           -0.513083            1.101155
 C           -7.451138            0.318988            0.641146
 C           -7.477944            0.786615           -0.663053
 C           -8.555994            1.625954           -1.155732
 C           -6.372391           -0.997830            2.435319
 C           -5.349308           -1.819506            2.879964
 C           -5.327141           -2.329377            4.240162
 C           -4.326719           -3.141983            4.665082
 C           -3.253417           -3.510849            3.771661
 C           -3.232055           -3.059004            2.491920
 C           -4.283894           -2.197081            1.980405
 C           -4.298358           -1.737970            0.664008
 C           -3.245055           -2.174853           -0.287440
 C           -3.462340           -3.259668           -1.083519
 C           -2.448313           -3.720987           -1.999140
 C           -1.249558           -3.090216           -2.078083
 C           -0.962757           -1.929073           -1.255187
 C            0.260833           -1.280906           -1.328702
 C            0.535254           -0.139969           -0.528945
 C            1.791361            0.522320           -0.582541
 C            2.048490            1.637284            0.199692
 C            3.331257            2.333760            0.177662
 C            4.417838            1.841219           -0.706723
 C            4.589806            2.385922           -1.978107
 C            3.698286            3.397916           -2.518440
 C            3.902747            3.929539           -3.750492
 C            5.015803            3.497771           -4.563630
 C            5.869048            2.544215           -4.111661
 C            5.692224            1.943603           -2.800662
 C            6.562253            0.973736           -2.329953
 C            6.390943            0.398179           -1.043389
 C            7.286600           -0.592270           -0.557548
 C            7.123439           -1.149835            0.700652
 C            8.033518           -2.156138            1.218844
 C            7.854075           -2.686041            2.455587
 C            6.749078           -2.262643            3.285298
 C            5.870929           -1.326245            2.844070
 C            6.020642           -0.724044            1.531117
 C            5.141175            0.241310            1.065725
 C            5.301933            0.829633           -0.217837
 C            3.543215            3.427101            0.963542
 C            2.506298            3.925867            1.832711
 C            1.296691            3.313594            1.888111
 C            1.017216            2.140903            1.079413
 C           -0.211475            1.501226            1.142092
 C           -0.480629            0.351839            0.353011
 C           -1.729697           -0.322420            0.421492
 C           -1.981466           -1.446280           -0.349375
 H           -9.365058            2.698874           -2.819256
 H           -7.540302            2.103955           -4.361179
 H           -5.646184            0.668731           -3.600212
 H           -4.561738           -0.642027           -1.810064
 H           -8.248437            0.582970            1.335164
 H           -9.356205            1.880012           -0.462195
 H           -7.181170           -0.717040            3.109407
 H           -6.142806           -2.038193            4.900459
 H           -4.303587           -3.535280            5.680119
 H           -2.467948           -4.158277            4.158142
 H           -2.421515           -3.327997            1.811730
 H           -4.404273           -3.807321           -1.044729
 H           -2.678023           -4.588674           -2.616342
 H           -0.469728           -3.431004           -2.757945
 H            1.033137           -1.642496           -2.008164
 H            2.560000            0.132331           -1.253751
 H            2.855165            3.712441           -1.900377
 H            3.237725            4.688839           -4.158690
 H            5.142628            3.959137           -5.541708
 H            6.710466            2.202538           -4.712824
 H            7.397833            0.642525           -2.945851
 H            8.112221           -0.907525           -1.194628
 H            8.860913           -2.465148            0.581886
 H            8.530986           -3.439480            2.855566
 H            6.647730           -2.719234            4.268126
 H            5.031995           -0.998510            3.457422
 H            4.303817            0.562461            1.689841
 H            4.499519            3.950630            0.954738
 H            2.729300            4.804126            2.437444
 H            0.501859            3.679060            2.537092
 H           -0.991996            1.876205            1.804733
 H           -2.495588            0.062689            1.098652

