86

 C           12.645351            1.070461            2.866845
 C           11.960765            0.455223            3.981216
 C           10.725037           -0.083533            3.821989
 C           10.058971           -0.053427            2.531594
 C            8.793578           -0.589503            2.349528
 C            8.155038           -0.546659            1.081240
 C            6.856961           -1.089588            0.884212
 C            6.245228           -1.046413           -0.359155
 C            4.928973           -1.613881           -0.580857
 C            4.350070           -1.574985           -1.812198
 C            3.024642           -2.191305           -2.061301
 C            2.946116           -3.486625           -2.476181
 C            1.667613           -4.111643           -2.710033
 C            0.515070           -3.422143           -2.515789
 C            0.538546           -2.037196           -2.079543
 C           -0.633002           -1.322460           -1.880197
 C           -0.604246            0.034773           -1.461801
 C           -1.797906            0.774425           -1.244519
 C           -1.759241            2.100473           -0.841852
 C           -2.967303            2.883420           -0.602919
 C           -4.293639            2.242162           -0.770721
 C           -4.931785            1.651531            0.276495
 C           -6.246890            1.062859            0.110452
 C           -6.917229            0.467338            1.167853
 C           -8.212784           -0.089160            0.993671
 C           -8.910529           -0.698896            2.070509
 C          -10.172844           -1.242186            1.888548
 C          -10.898579           -1.874718            2.976169
 C          -12.130491           -2.408196            2.774889
 C          -12.751288           -2.356612            1.470710
 C          -12.114930           -1.772110            0.423747
 C          -10.795074           -1.187668            0.585135
 C          -10.126255           -0.589611           -0.471894
 C           -8.830866           -0.032877           -0.298157
 C           -8.132001            0.576435           -1.375240
 C           -6.867574            1.114245           -1.193746
 C           -6.136554            1.738838           -2.282708
 C           -4.908340            2.278904           -2.083865
 C           -2.887915            4.190078           -0.225314
 C           -1.608571            4.830889           -0.044238
 C           -0.456430            4.141310           -0.240461
 C           -0.480747            2.747270           -0.646362
 C            0.690648            2.033305           -0.849079
 C            0.661498            0.671835           -1.252987
 C            1.854964           -0.072789           -1.453417
 C            1.816599           -1.399493           -1.853525
 C            5.029677           -0.944625           -2.927717
 C            6.260554           -0.399254           -2.762748
 C            6.930611           -0.433454           -1.474281
 C            8.197756            0.098406           -1.294342
 C            8.837006            0.056386           -0.025734
 C           10.134686            0.599557            0.172017
 C           10.745330            0.557879            1.416081
 C           12.066455            1.118316            1.639932
 H           13.633858            1.490420            3.046726
 H           12.468341            0.440851            4.944653
 H           10.196930           -0.551489            4.651908
 H            8.268836           -1.053922            3.183867
 H            6.345437           -1.546209            1.731169
 H            4.424298           -2.076866            0.267294
 H            3.843555           -4.083568           -2.637516
 H            1.663567           -5.149095           -3.042557
 H           -0.457385           -3.883850           -2.681288
 H           -1.599761           -1.798544           -2.043590
 H           -2.757059            0.276543           -1.400013
 H           -4.476286            1.609768            1.266055
 H           -6.454550            0.420360            2.153400
 H           -8.433883           -0.733636            3.049718
 H          -10.417975           -1.905212            3.953310
 H          -12.682374           -2.887413            3.582173
 H          -13.739551           -2.800416            1.360337
 H          -12.570367           -1.724699           -0.564583
 H          -10.589836           -0.540776           -1.456701
 H           -8.610732            0.616189           -2.353187
 H           -6.611355            1.757830           -3.263461
 H           -4.351464            2.752666           -2.892237
 H           -3.785581            4.782178           -0.048033
 H           -1.603725            5.878358            0.255221
 H            0.516625            4.610482           -0.100995
 H            1.657696            2.513312           -0.698833
 H            2.813904            0.421368           -1.284767
 H            4.518433           -0.928003           -3.890110
 H            6.783399            0.079177           -3.590704
 H            8.724951            0.556873           -2.130480
 H           10.646940            1.054636           -0.675179
 H           12.570486            1.577183            0.790254

