98

 C            6.777273           -0.557700            5.487867
 C            5.468831           -1.164817            5.625876
 C            4.750364           -1.514052            4.531697
 C            5.272651           -1.296262            3.189913
 C            4.562614           -1.657013            2.066858
 C            5.086780           -1.446182            0.750041
 C            6.380386           -0.830924            0.615322
 C            7.103210           -0.461794            1.796290
 C            6.583227           -0.683653            3.051532
 C            7.307907           -0.325446            4.262951
 C            6.915740           -0.613060           -0.662961
 C            6.209239           -0.979608           -1.817793
 C            6.757399           -0.763003           -3.124106
 C            6.069280           -1.130039           -4.258318
 C            6.615008           -0.927299           -5.593324
 C            5.920326           -1.300368           -6.695049
 C            4.610319           -1.908015           -6.574878
 C            4.054166           -2.116107           -5.357187
 C            4.756635           -1.742206           -4.137499
 C            4.212546           -1.957255           -2.891292
 C            4.914273           -1.594847           -1.695451
 C            4.380380           -1.830121           -0.410371
 C            3.078562           -2.530904           -0.274255
 C            3.051377           -3.892345           -0.217275
 C            1.803995           -4.601410           -0.077515
 C            0.629894           -3.925658            0.002870
 C            0.599040           -2.474873           -0.051808
 C           -0.595174           -1.775070            0.033008
 C           -0.620940           -0.356054           -0.023278
 C           -1.838380            0.371434            0.068126
 C           -1.853683            1.756156            0.008491
 C           -3.086378            2.532003            0.103070
 C           -4.383010            1.830785            0.280765
 C           -5.137459            1.462622           -0.853516
 C           -4.670982            1.695572           -2.188425
 C           -5.427748            1.350219           -3.285254
 C           -4.965005            1.592130           -4.644725
 C           -5.728211            1.255924           -5.712330
 C           -7.026524            0.639357           -5.527694
 C           -7.503417            0.386268           -4.285074
 C           -6.729178            0.730074           -3.100265
 C           -7.194312            0.487575           -1.827646
 C           -6.422702            0.841277           -0.672756
 C           -6.902417            0.602273            0.623361
 C           -6.148941            0.955633            1.752971
 C           -6.640402            0.719254            3.078048
 C           -5.906369            1.074964            4.187308
 C           -6.393530            0.852090            5.541516
 C           -5.654299            1.215270            6.617553
 C           -4.354188            1.832690            6.449800
 C           -3.851811            2.059349            5.212162
 C           -4.603278            1.695893            4.019092
 C           -4.113188            1.928991            2.753677
 C           -4.862540            1.577506            1.584257
 C           -3.061304            3.892815            0.033928
 C           -1.816823            4.601462           -0.132362
 C           -0.643134            3.925957           -0.221326
 C           -0.609739            2.475795           -0.153175
 C            0.584535            1.776216           -0.239750
 C            0.611735            0.357457           -0.175869
 C            1.829687           -0.370228           -0.259074
 C            1.844727           -1.754968           -0.197760
 H            7.311761           -0.297015            6.400183
 H            5.089706           -1.326962            6.633512
 H            3.763320           -1.967943            4.617579
 H            3.575144           -2.114680            2.162595
 H            8.082840           -0.000903            1.674730
 H            8.288739            0.132706            4.143859
 H            7.899963           -0.155667           -0.760074
 H            7.740903           -0.300022           -3.196879
 H            7.599293           -0.467181           -5.668333
 H            6.319834           -1.156160           -7.697813
 H            4.095970           -2.187361           -7.492879
 H            3.068726           -2.568614           -5.249192
 H            3.224317           -2.412324           -2.792111
 H            3.970135           -4.476823           -0.274505
 H            1.841183           -5.689453           -0.038232
 H           -0.319864           -4.448230            0.109978
 H           -1.538014           -2.310864            0.144659
 H           -2.772159           -0.182964            0.187856
 H           -3.689959            2.158416           -2.318962
 H           -3.985126            2.053443           -4.765854
 H           -5.393988            1.435930           -6.732766
 H           -7.597960            0.389119           -6.420285
 H           -8.476116           -0.078721           -4.131192
 H           -8.166683            0.021885           -1.671370
 H           -7.879738            0.139034            0.755556
 H           -7.618030            0.250929            3.186366
 H           -7.371279            0.385547            5.652742
 H           -6.009933            1.055680            7.634379
 H           -3.802701            2.104114            7.348481
 H           -2.874633            2.519824            5.067914
 H           -3.132374            2.391268            2.619231
 H           -3.979434            4.476963            0.103431
 H           -1.855826            5.688963           -0.182281
 H            0.304425            4.448620           -0.346396
 H            1.526410            2.312140           -0.359179
 H            2.764403            0.183977           -0.372739

