98

 C          -14.767338            2.345484            2.021025
 C          -14.035122            3.452428            2.602789
 C          -12.728236            3.649483            2.305298
 C          -12.022029            2.757064            1.396573
 C          -10.693079            2.938656            1.085577
 C          -10.010803            2.048124            0.194631
 C           -8.654476            2.221477           -0.122091
 C           -7.995299            1.341004           -0.993702
 C           -6.611425            1.508690           -1.323967
 C           -5.972467            0.641897           -2.182036
 C           -4.571519            0.808612           -2.534608
 C           -3.957930           -0.050888           -3.389312
 C           -2.538411            0.126006           -3.778743
 C           -2.225581            0.768542           -4.938550
 C           -0.850129            0.968131           -5.324085
 C            0.161027            0.523383           -4.535650
 C           -0.114090           -0.172143           -3.291124
 C            0.911738           -0.628065           -2.476588
 C            0.637474           -1.318999           -1.266353
 C            1.679511           -1.784966           -0.419610
 C            1.400519           -2.469752            0.753013
 C            2.446493           -2.952190            1.649058
 C            3.867081           -2.692214            1.313952
 C            4.535354           -1.631088            1.836334
 C            5.940417           -1.408609            1.534544
 C            6.634657           -0.343347            2.063063
 C            8.023863           -0.146134            1.774725
 C            8.739413            0.934989            2.312342
 C           10.100827            1.117931            2.024900
 C           10.840363            2.219577            2.565477
 C           12.173731            2.396452            2.271619
 C           12.937848            3.514577            2.807502
 C           14.247863            3.675563            2.502349
 C           14.925751            2.734890            1.633200
 C           14.263652            1.675452            1.109379
 C           12.854405            1.451253            1.401035
 C           12.163705            0.381755            0.876614
 C           10.775016            0.180002            1.166153
 C           10.060174           -0.903659            0.631965
 C            8.697405           -1.084252            0.915716
 C            7.953627           -2.181796            0.371508
 C            6.618158           -2.351800            0.659638
 C            5.846383           -3.460443            0.114682
 C            4.538208           -3.624136            0.422143
 C            2.131936           -3.632039            2.786993
 C            0.756793           -3.889500            3.137634
 C           -0.252736           -3.452208            2.343323
 C            0.024377           -2.720243            1.120255
 C           -1.000682           -2.260789            0.307394
 C           -0.725382           -1.552163           -0.892361
 C           -1.768078           -1.070472           -1.728686
 C           -1.490167           -0.388940           -2.903489
 C           -4.686538           -1.170359           -3.963593
 C           -5.992196           -1.366919           -3.665075
 C           -6.705288           -0.470438           -2.765270
 C           -8.036079           -0.649326           -2.461716
 C           -8.722326            0.242867           -1.574419
 C          -10.079549            0.071672           -1.260591
 C          -10.738266            0.950176           -0.385718
 C          -12.121030            0.782079           -0.050569
 C          -12.756797            1.646546            0.812397
 C          -14.159866            1.485692            1.168389
 H          -15.815410            2.233807            2.294451
 H          -14.572194            4.112527            3.282200
 H          -12.164086            4.476580            2.734532
 H          -10.130361            3.767676            1.514295
 H           -8.103813            3.053574            0.316370
 H           -6.073746            2.345520           -0.878308
 H           -4.034405            1.648310           -2.092798
 H           -3.003139            1.152642           -5.598882
 H           -0.656153            1.488700           -6.261005
 H            1.204456            0.672884           -4.810597
 H            1.951039           -0.461344           -2.759745
 H            2.714310           -1.590873           -0.709760
 H            4.040908           -0.920222            2.498675
 H            6.137856            0.373168            2.717025
 H            8.228875            1.644336            2.963453
 H           10.317509            2.918637            3.217833
 H           12.413925            4.212887            3.458970
 H           14.827836            4.508952            2.895996
 H           15.978696            2.912629            1.420116
 H           14.759656            0.960140            0.454532
 H           12.662588           -0.335101            0.225009
 H           10.572342           -1.616668           -0.013806
 H            8.474438           -2.883447           -0.279687
 H            6.363115           -4.153807           -0.548638
 H            3.950846           -4.449403            0.020048
 H            2.908260           -3.995959            3.460219
 H            0.561844           -4.440512            4.056729
 H           -1.296324           -3.635334            2.596558
 H           -2.040244           -2.440817            0.581548
 H           -2.802853           -1.247091           -1.427203
 H           -4.142923           -1.835392           -4.634292
 H           -6.550704           -2.200971           -4.089496
 H           -8.597244           -1.477752           -2.893420
 H          -10.632031           -0.756770           -1.703430
 H          -12.660561           -0.053077           -0.496343
 H          -14.696862            0.648892            0.723573

