98

 C            9.054144           -0.209772            1.962412
 C            8.261094           -1.115329            1.189938
 C            6.990661           -0.775141            0.810964
 C            6.433850            0.494527            1.186525
 C            5.114334            0.865987            0.817880
 C            4.574640            2.086083            1.194712
 C            5.380338            2.996369            1.966587
 C            6.672430            2.648744            2.327224
 C            7.223518            1.395605            1.952695
 C            8.553801            1.009538            2.331864
 C            4.817866            4.282556            2.367625
 C            3.556052            4.630429            2.048120
 C            2.690091            3.741269            1.279775
 C            1.390342            4.111623            0.974855
 C            0.538688            3.252963            0.231906
 C           -0.813144            3.626819           -0.075977
 C           -1.619089            2.782693           -0.789278
 C           -1.127191            1.520079           -1.238939
 C            0.158842            1.125979           -0.954929
 C            0.658824           -0.158996           -1.509787
 C            1.281130           -0.088610           -2.761973
 C            1.526322            1.173986           -3.441457
 C            2.120058            1.218636           -4.661421
 C            2.529287            0.004970           -5.327521
 C            2.328554           -1.200420           -4.737667
 C            1.695251           -1.294736           -3.434000
 C            1.464443           -2.517643           -2.830957
 C            0.851746           -2.602732           -1.553686
 C            0.632176           -3.886473           -0.989521
 C            0.046876           -4.030786            0.254973
 C           -0.188134           -5.341734            0.834451
 C           -0.745093           -5.468155            2.065265
 C           -1.119812           -4.295118            2.818937
 C           -0.917238           -3.051698            2.313139
 C           -0.320858           -2.853534            1.001294
 C           -0.091203           -1.580778            0.465549
 C           -0.386049           -0.430378            1.359160
 C           -1.722302            0.108629            1.447471
 C           -2.786953           -0.371933            0.641002
 C           -4.057220            0.179100            0.709691
 C           -4.301066            1.252049            1.636847
 C           -3.276050            1.720327            2.442819
 C           -1.971598            1.166157            2.365533
 C           -0.902801            1.655424            3.190419
 C            0.349802            1.114541            3.092619
 C            0.611653            0.057469            2.169470
 C           -5.635087            1.839675            1.714555
 C           -6.641182            1.410028            0.928276
 C           -6.448031            0.334184           -0.039489
 C           -7.493168           -0.080845           -0.849113
 C           -7.314874           -1.123417           -1.795380
 C           -8.381405           -1.557118           -2.653676
 C           -8.177214           -2.562464           -3.559801
 C           -6.900147           -3.198372           -3.662131
 C           -5.864311           -2.808111           -2.856941
 C           -6.043735           -1.752490           -1.899498
 C           -4.982408           -1.319602           -1.061872
 C           -5.156305           -0.293038           -0.146496
 C            0.461627           -1.412694           -0.845413
 C            1.038105            1.997231           -0.211829
 C            2.375294            1.636617            0.099129
 C            3.199984            2.470195            0.838826
 H           10.059715           -0.514154            2.248190
 H            8.690886           -2.076984            0.913993
 H            6.377710           -1.456506            0.222394
 H            4.523816            0.163052            0.225701
 H            7.284325            3.337409            2.909361
 H            9.148685            1.706843            2.919639
 H            5.463224            4.950203            2.939351
 H            3.136998            5.590106            2.351475
 H            1.001556            5.073717            1.306884
 H           -1.178610            4.589801            0.275526
 H           -2.649553            3.049421           -1.024155
 H           -1.798010            0.871956           -1.803544
 H            1.222095            2.094813           -2.938524
 H            2.305259            2.165112           -5.167151
 H            2.999068            0.091947           -6.306061
 H            2.631694           -2.128533           -5.219690
 H            1.751377           -3.440659           -3.334800
 H            0.936314           -4.765392           -1.557990
 H            0.099337           -6.212157            0.246769
 H           -0.924562           -6.443752            2.514457
 H           -1.569957           -4.441531            3.799614
 H           -1.205943           -2.166412            2.884349
 H           -2.580688           -1.192947           -0.051880
 H           -3.459396            2.529455            3.149047
 H           -1.112730            2.465545            3.886210
 H            1.172482            1.479649            3.707543
 H            1.622976           -0.346280            2.114406
 H           -5.781559            2.642965            2.436956
 H           -7.636463            1.851438            0.988021
 H           -8.471385            0.392690           -0.769208
 H           -9.349456           -1.066352           -2.566771
 H           -8.977815           -2.896361           -4.217772
 H           -6.773803           -3.995307           -4.393222
 H           -4.887718           -3.285577           -2.925760
 H           -4.013610           -1.816151           -1.153721
 H            2.745883            0.670272           -0.255191

