98

 C           -7.256582            3.764738            6.119215
 C           -6.370059            4.705159            5.506452
 C           -5.521206            4.309307            4.508552
 C           -5.505912            2.943644            4.064013
 C           -4.632080            2.505584            3.034642
 C           -4.615291            1.184908            2.613363
 C           -5.511320            0.243183            3.232259
 C           -6.372146            0.658877            4.235631
 C           -6.387307            2.008861            4.673462
 C           -7.267505            2.456699            5.716113
 C           -5.501485           -1.147938            2.789630
 C           -4.671874           -1.572319            1.816278
 C           -3.735518           -0.664370            1.160740
 C           -2.878934           -1.125384            0.173432
 C           -1.951186           -0.257157           -0.458454
 C           -1.030672           -0.712535           -1.473863
 C           -1.096465           -2.113060           -1.966558
 C           -1.995115           -2.351583           -3.013525
 C           -2.851851           -1.310456           -3.560030
 C           -3.713785           -1.563486           -4.577772
 C           -3.804432           -2.882643           -5.157360
 C           -3.028449           -3.891300           -4.686689
 C           -2.097357           -3.666203           -3.594974
 C           -1.304366           -4.686485           -3.103217
 C           -0.399305           -4.462471           -2.033327
 C            0.380887           -5.552262           -1.567035
 C            1.285381           -5.394084           -0.533290
 C            2.088587           -6.505386           -0.054453
 C            2.975718           -6.336189            0.958041
 C            3.133533           -5.042270            1.578871
 C            2.396925           -3.979582            1.164897
 C            1.430559           -4.100041            0.084233
 C            0.656496           -3.019528           -0.356046
 C            0.841035           -1.743389            0.382960
 C            1.885279           -0.824079           -0.004555
 C            2.710560           -1.042241           -1.138158
 C            3.684053           -0.125872           -1.504055
 C            4.513295           -0.352882           -2.683666
 C            5.449806            0.536128           -3.069338
 C            5.686294            1.768601           -2.323363
 C            6.648367            2.674048           -2.741945
 C            6.881433            3.877022           -2.025632
 C            7.868242            4.830896           -2.448398
 C            8.066707            5.984689           -1.739063
 C            7.295086            6.256605           -0.565878
 C            6.348575            5.366115           -0.136733
 C            6.114636            4.146845           -0.858859
 C            5.135531            3.208928           -0.438512
 C            4.906033            2.037621           -1.143648
 C            3.881731            1.067736           -0.725461
 C            3.092271            1.274809            0.394875
 C            2.086285            0.348427            0.775529
 C            1.263273            0.581004            1.929332
 C            0.285920           -0.311821            2.273529
 C            0.074707           -1.490073            1.495155
 C           -0.276036           -3.159856           -1.434351
 C           -0.157567            0.170969           -2.061661
 C           -0.133276            1.543339           -1.667967
 C           -0.989971            2.004488           -0.706516
 C           -1.921228            1.112263           -0.074648
 C           -2.810168            1.573716            0.931411
 C           -3.704622            0.718675            1.555922
 H           -7.918688            4.114082            6.909731
 H           -6.388216            5.737608            5.851860
 H           -4.843446            5.017056            4.033958
 H           -3.964563            3.237349            2.575274
 H           -7.052270           -0.052040            4.703921
 H           -7.939063            1.732595            6.174542
 H           -6.196040           -1.829596            3.281365
 H           -4.669794           -2.611550            1.484697
 H           -2.906241           -2.173936           -0.131081
 H           -2.786126           -0.310613           -3.124693
 H           -4.357639           -0.783581           -4.981704
 H           -4.508474           -3.036243           -5.973618
 H           -3.077669           -4.893905           -5.108530
 H           -1.365659           -5.684770           -3.536485
 H            0.255147           -6.526188           -2.040023
 H            1.950505           -7.471777           -0.536862
 H            3.586080           -7.159171            1.326706
 H            3.859758           -4.948302            2.384923
 H            2.518946           -3.002405            1.637828
 H            2.563200           -1.950703           -1.726255
 H            4.340948           -1.274319           -3.241448
 H            6.064059            0.366437           -3.954055
 H            7.240598            2.471651           -3.633897
 H            8.449987            4.613618           -3.342746
 H            8.811089            6.715006           -2.051951
 H            7.479025            7.184372           -0.026379
 H            5.756046            5.562578            0.755342
 H            4.558245            3.430614            0.461301
 H            3.230904            2.168172            1.006805
 H            1.432994            1.482420            2.515489
 H           -0.352170           -0.143869            3.141033
 H           -0.713607           -2.179876            1.797451
 H            0.537459           -0.162267           -2.832758
 H            0.584368            2.206970           -2.150193
 H           -0.980626            3.048701           -0.399273
 H           -2.772998            2.628544            1.210087

