90

 C            2.958215           -6.709976            0.519490
 C            3.086123           -6.062823            1.762408
 C            2.884294           -4.687618            1.864446
 C            2.547078           -3.934660            0.697231
 C            2.418437           -4.596492           -0.550044
 C            2.628463           -5.994043           -0.620675
 C            2.073119           -3.817414           -1.715892
 C            1.876869           -2.474750           -1.626553
 C            2.001090           -1.774417           -0.368727
 C            2.333899           -2.509278            0.781538
 C            2.461259           -1.846669            2.058232
 C            2.246802           -0.489040            2.150229
 C            1.893939            0.277729            0.997404
 C            1.639181            1.681358            1.108948
 C            1.273835            2.416363            0.003612
 C            1.053335            3.882212            0.101792
 C            2.183855            4.688632           -0.074867
 C            3.497356            4.138431           -0.372060
 C            4.579810            4.940047           -0.541651
 C            4.461789            6.374559           -0.427238
 C            3.260498            6.941220           -0.150071
 C            2.075783            6.121677            0.035737
 C            0.846399            6.686639            0.320391
 C           -0.310305            5.881911            0.489772
 C           -1.544089            6.521787            0.778191
 C           -2.704149            5.791483            0.957196
 C           -3.967190            6.440152            1.263929
 C           -5.099144            5.712207            1.435788
 C           -5.063793            4.273714            1.315549
 C           -3.904547            3.629191            1.026592
 C           -2.659387            4.356154            0.832149
 C           -1.452346            3.713203            0.534245
 C           -1.516804            2.236376            0.386708
 C           -1.344135            1.415848            1.544870
 C           -1.438554            0.052066            1.442094
 C           -1.718113           -0.579220            0.188761
 C           -1.930173            0.239634           -0.950519
 C           -1.823779            1.661113           -0.825844
 C           -2.238012           -0.356956           -2.211697
 C           -2.312225           -1.725747           -2.347297
 C           -2.624166           -2.356416           -3.627317
 C           -2.679289           -3.698371           -3.762402
 C           -2.431072           -4.587968           -2.632921
 C           -2.128259           -4.009113           -1.361607
 C           -1.879229           -4.852720           -0.249492
 C           -1.935941           -6.256813           -0.415351
 C           -2.234769           -6.803026           -1.653651
 C           -2.481878           -5.974582           -2.763873
 C           -1.572767           -4.247016            1.025155
 C           -1.529315           -2.894987            1.164537
 C           -1.778646           -2.011615            0.048570
 C           -2.071344           -2.575107           -1.204661
 C           -0.234130            4.449855            0.371719
 C            1.189512            1.788006           -1.277962
 C            1.433881            0.444846           -1.402979
 C            1.780050           -0.354584           -0.267727
 C            2.811467           -2.651267            3.225898
 C            3.007822           -3.983826            3.136478
 H            3.121103           -7.785581            0.461197
 H            3.345160           -6.647541            2.643227
 H            2.526749           -6.501278           -1.578689
 H            1.968224           -4.339353           -2.666751
 H            1.610399           -1.891123           -2.510447
 H            2.340874            0.024773            3.106046
 H            1.727371            2.154987            2.085831
 H            3.590955            3.053471           -0.457170
 H            5.561010            4.525222           -0.767610
 H            5.358652            6.975322           -0.570169
 H            3.146558            8.020434           -0.059200
 H            0.750300            7.768115            0.419051
 H           -1.563411            7.608935            0.857427
 H           -3.968793            7.525745            1.350142
 H           -6.053287            6.183422            1.666647
 H           -5.993540            3.726484            1.463958
 H           -3.882062            2.540996            0.934556
 H           -1.127831            1.896469            2.497992
 H           -1.290540           -0.579165            2.320798
 H           -1.978981            2.278515           -1.709638
 H           -2.413418            0.296187           -3.065557
 H           -2.813294           -1.693801           -4.472082
 H           -2.911169           -4.163634           -4.720657
 H           -1.740732           -6.903471            0.438598
 H           -2.280322           -7.884485           -1.777102
 H           -2.713632           -6.427929           -3.725882
 H           -1.370966           -4.906515            1.868947
 H           -1.292686           -2.442066            2.129855
 H            0.920061            2.395242           -2.140984
 H            1.356762           -0.041533           -2.377611
 H            2.908360           -2.126863            4.176749
 H            3.265816           -4.580081            4.011951

