90

 C           -3.138705            0.394847           -4.397225
 C           -2.662329            1.428950           -3.548599
 C           -2.218835            1.145241           -2.278809
 C           -2.224690           -0.182617           -1.745927
 C           -2.686751           -1.207946           -2.617907
 C           -3.142780           -0.897314           -3.939026
 C           -2.695228           -2.570271           -2.197496
 C           -2.267902           -2.916457           -0.939208
 C           -2.264882           -4.317118           -0.524121
 C           -1.869821           -4.690389            0.708964
 C           -1.430938           -3.698601            1.682381
 C           -1.406194           -2.319869            1.298865
 C           -0.966948           -1.360950            2.241263
 C           -0.576732           -1.765582            3.541609
 C           -0.618475           -3.103174            3.895033
 C           -1.039411           -4.072835            2.965679
 C           -0.930983            0.015842            1.837413
 C           -1.305200            0.418545            0.582513
 C           -1.266442            1.896092            0.396143
 C           -2.438700            2.592863            0.719785
 C           -3.674640            1.915224            1.077229
 C           -4.800406            2.609835            1.383462
 C           -4.803765            4.053304            1.365858
 C           -3.677805            4.736582            1.038673
 C           -2.452434            4.033828            0.701047
 C           -1.296271            4.717208            0.370018
 C           -0.104925            4.025879            0.028088
 C            1.049375            4.782287           -0.303970
 C            2.238440            4.163969           -0.645403
 C            3.425613            4.933298           -0.974858
 C            4.584020            4.313277           -1.314193
 C            4.654584            2.871877           -1.352396
 C            3.566930            2.116181           -1.053558
 C            2.298645            2.724478           -0.684384
 C            1.164535            1.964013           -0.369497
 C            1.278782            0.492987           -0.574911
 C            0.922725            0.087172           -1.834063
 C            1.024843           -1.281511           -2.253824
 C            0.648520           -1.690203           -3.557031
 C            0.751149           -3.020471           -3.924954
 C            1.222523           -3.979049           -3.008159
 C            1.603475           -3.600097           -1.723107
 C            1.514081           -2.228400           -1.324163
 C            1.910197           -1.797371           -0.001396
 C            1.810755           -0.446212            0.402892
 C            2.238826           -0.088044            1.742142
 C            2.161625            1.229996            2.293390
 C            2.605898            1.522933            3.560880
 C            3.153048            0.507509            4.389020
 C            3.222381           -0.777025            3.914801
 C            2.766159           -1.097009            2.596093
 C            2.841457           -2.452211            2.159465
 C            2.419542           -2.806057            0.901555
 C            2.482067           -4.200645            0.470988
 C            2.096540           -4.579600           -0.763355
 C           -0.068004            2.587930            0.017980
 C           -1.785829           -0.534392           -0.408488
 C           -1.817149           -1.893814           -0.020945
 H           -3.490475            0.643539           -5.396125
 H           -2.653134            2.453197           -3.918996
 H           -1.850359            1.976138           -1.680262
 H           -3.493355           -1.711677           -4.571314
 H           -3.040016           -3.330039           -2.898493
 H           -2.593750           -5.050337           -1.260868
 H           -1.862858           -5.734997            1.017917
 H           -0.236696           -1.014440            4.253546
 H           -0.324104           -3.417089            4.895501
 H           -1.054580           -5.120886            3.258712
 H           -0.579093            0.746624            2.571320
 H           -3.676393            0.822718            1.085593
 H           -5.726595            2.100817            1.646072
 H           -5.730611            4.566087            1.619148
 H           -3.657689            5.824996            1.016879
 H           -1.286421            5.807220            0.369406
 H            0.983490            5.870229           -0.287622
 H            3.349892            6.018829           -0.937258
 H            5.482591            4.876443           -1.562374
 H            5.604764            2.414718           -1.624552
 H            3.624563            1.025418           -1.077356
 H            0.533417            0.808131           -2.558719
 H            0.269842           -0.948535           -4.259310
 H            0.466332           -3.337376           -4.927181
 H            1.285167           -5.022072           -3.312427
 H            1.734930            2.044781            1.711648
 H            2.542566            2.540171            3.945115
 H            3.505795            0.763983            5.385672
 H            3.626583           -1.577998            4.532131
 H            3.232935           -3.200764            2.847970
 H            2.851785           -4.924773            1.197347
 H            2.137912           -5.619967           -1.083576

