90

 C            4.896880            5.607830           -0.188134
 C            3.972141            5.792502            0.856432
 C            3.166593            4.736703            1.279014
 C            3.280202            3.462860            0.640239
 C            4.215843            3.286827           -0.410310
 C            5.022609            4.377434           -0.813506
 C            4.314007            1.991824           -1.041484
 C            3.519637            0.960371           -0.647780
 C            2.550904            1.114224            0.412663
 C            2.444766            2.360059            1.052972
 C            1.492741            2.553440            2.121478
 C            0.680647            1.511613            2.511479
 C            0.758466            0.240349            1.865657
 C           -0.111535           -0.828486            2.256036
 C           -0.074964           -2.034983            1.607295
 C            0.847385           -2.241894            0.533130
 C            0.885755           -3.583085           -0.103682
 C            1.762251           -4.516008            0.461725
 C            2.673032           -4.176985            1.544320
 C            3.514859           -5.099388            2.076739
 C            3.527037           -6.457785            1.587398
 C            2.694692           -6.829676            0.582625
 C            1.779989           -5.875047           -0.018820
 C            0.912962           -6.246499           -1.029997
 C            0.032424           -5.305694           -1.625117
 C           -0.845414           -5.746768           -2.649495
 C           -1.714729           -4.870787           -3.273407
 C           -2.626945           -5.320077           -4.310511
 C           -3.461209           -4.447258           -4.929325
 C           -3.452819           -3.050161           -4.564542
 C           -2.613318           -2.588613           -3.602613
 C           -1.701878           -3.478400           -2.899844
 C           -0.828736           -3.027312           -1.903626
 C           -0.795319           -1.561660           -1.666382
 C            0.144447           -0.782011           -2.412382
 C            0.187320            0.578072           -2.250394
 C           -0.700658            1.235787           -1.338876
 C           -0.612861            2.645931           -1.131356
 C           -1.456838            3.284332           -0.249754
 C           -1.371178            4.721847           -0.008121
 C           -2.202322            5.347305            0.851715
 C           -3.230680            4.615339            1.583128
 C           -3.345161            3.205473            1.376208
 C           -4.338156            2.473092            2.074502
 C           -5.205200            3.150426            2.964619
 C           -5.079701            4.517212            3.157007
 C           -4.095235            5.252633            2.471228
 C           -4.432107            1.048989            1.854899
 C           -3.583841            0.415980            1.000676
 C           -2.563968            1.137256            0.275247
 C           -2.456963            2.525217            0.463611
 C           -1.660570            0.469858           -0.627880
 C           -1.687760           -0.946378           -0.817901
 C            0.029749           -3.932166           -1.198378
 C            1.720992           -1.242700            0.168024
 C            1.688348            0.031654            0.814349
 C            1.416817            3.866248            2.756221
 C            2.200591            4.891548            2.361186
 H            5.517650            6.446677           -0.502242
 H            3.892397            6.767845            1.332950
 H            5.742200            4.239717           -1.618655
 H            5.043452            1.867265           -1.841080
 H            3.596746           -0.017652           -1.128669
 H           -0.048542            1.644544            3.311172
 H           -0.811567           -0.656494            3.073535
 H           -0.738630           -2.850723            1.891040
 H            2.664652           -3.150702            1.918030
 H            4.201046           -4.842820            2.882530
 H            4.218076           -7.161928            2.048240
 H            2.684112           -7.847960            0.197043
 H            0.895070           -7.276568           -1.386313
 H           -0.823782           -6.797457           -2.939206
 H           -2.613214           -6.377853           -4.568673
 H           -4.150762           -4.768921           -5.708180
 H           -4.139667           -2.384523           -5.085127
 H           -2.607447           -1.530728           -3.330883
 H            0.817330           -1.292049           -3.100368
 H            0.904814            1.183157           -2.804551
 H            0.148943            3.205005           -1.675614
 H           -0.600124            5.268679           -0.552445
 H           -2.134780            6.420514            1.028437
 H           -5.971341            2.587552            3.494869
 H           -5.747537            5.036075            3.844328
 H           -4.015830            6.325051            2.639379
 H           -5.203115            0.498885            2.393274
 H           -3.657210           -0.662093            0.839400
 H           -2.417808           -1.538983           -0.263479
 H            2.438308           -1.406778           -0.638335
 H            0.692828            3.983093            3.563553
 H            2.139911            5.869660            2.837835

