94

 C            7.858986            6.288720           -4.187904
 C            8.434896            5.171501           -4.910375
 C            7.981320            3.910977           -4.711681
 C            6.906255            3.638405           -3.766361
 C            6.448048            2.359718           -3.550172
 C            5.396117            2.113711           -2.607014
 N            4.967486            0.840437           -2.388967
 C            3.983294            0.651189           -1.469746
 C            3.521882           -0.676071           -1.183038
 C            2.557337           -0.887785           -0.226070
 C            2.121211           -2.230689            0.120923
 C            1.211891           -2.442787            1.109419
 C            0.897853           -3.831318            1.530916
 C            1.663863           -4.368267            2.570116
 C            2.599754           -3.569358            3.344899
 C            3.319167           -4.111926            4.360318
 C            3.183504           -5.509718            4.696652
 C            2.340427           -6.305256            3.991408
 C            1.556211           -5.770540            2.892091
 C            0.737836           -6.582321            2.126487
 C           -0.060481           -6.043718            1.083579
 C           -0.860147           -6.910592            0.293661
 C           -1.681005           -6.414853           -0.704052
 C           -2.468582           -7.297916           -1.546130
 C           -3.315472           -6.796672           -2.480367
 C           -3.451922           -5.369018           -2.649348
 C           -2.728633           -4.507729           -1.888996
 C           -1.787946           -4.987997           -0.889653
 C           -1.017060           -4.124233           -0.105815
 C           -1.322366           -2.674191           -0.194789
 C           -2.204833           -2.117626            0.677271
 C           -2.619839           -0.730257            0.546760
 C           -3.534391           -0.174610            1.410414
 C           -3.969799            1.180545            1.235961
 N           -4.886069            1.711193            2.089529
 C           -5.295182            2.989916            1.866753
 C           -6.263971            3.590091            2.737400
 C           -6.706684            4.872189            2.510049
 C           -7.691002            5.502131            3.380828
 C           -8.135663            6.758286            3.139770
 C           -7.641936            7.514083            2.005263
 C           -6.718621            6.983434            1.168935
 C           -6.197725            5.638569            1.378568
 C           -5.254980            5.095258            0.537346
 C           -4.770824            3.762215            0.751036
 N           -3.839652            3.237328           -0.091575
 C           -3.429075            1.960605            0.132536
 C           -2.456206            1.360295           -0.735994
 C           -2.061630            0.057217           -0.546898
 C           -1.093086           -0.583435           -1.428888
 C           -0.743665           -1.880815           -1.268768
 C           -0.059673           -4.629635            0.829388
 C            0.615885           -1.320647            1.818843
 C            0.970712           -0.050379            1.516493
 C            1.971758            0.236477            0.495768
 C            2.376538            1.521894            0.225210
 C            3.398481            1.773906           -0.751240
 N            3.818444            3.047051           -0.977514
 C            4.811574            3.235747           -1.889132
 C            5.304596            4.558458           -2.142445
 C            6.322764            4.762914           -3.044241
 C            6.852551            6.095696           -3.302882
 H            8.264456            7.280648           -4.384459
 H            9.239174            5.384815           -5.613673
 H            8.402863            3.061148           -5.248637
 H            6.866880            1.499771           -4.078138
 H            3.974450           -1.501126           -1.738228
 H            2.569398           -3.062701           -0.424236
 H            2.706225           -2.513360            3.089517
 H            4.014908           -3.512023            4.945900
 H            3.776084           -5.896393            5.524510
 H            2.224066           -7.362451            4.226277
 H            0.696358           -7.655012            2.316860
 H           -0.818296           -7.982742            0.487112
 H           -2.351795           -8.370918           -1.399782
 H           -3.910574           -7.446649           -3.120040
 H           -4.151610           -5.009782           -3.403059
 H           -2.836108           -3.428776           -2.015265
 H           -2.643254           -2.700715            1.488511
 H           -3.964134           -0.742468            2.239025
 H           -6.632239            2.992423            3.574571
 H           -8.051712            4.921643            4.230097
 H           -8.871797            7.237264            3.784581
 H           -8.040278            8.516791            1.854108
 H           -6.336880            7.539606            0.312546
 H           -4.851302            5.650887           -0.312464
 H           -2.054113            1.973300           -1.546635
 H           -0.662797            0.026584           -2.224701
 H           -0.020109           -2.368653           -1.922768
 H           -0.126789           -1.545324            2.585205
 H            0.523305            0.801846            2.030474
 H            1.948918            2.383166            0.744813
 H            4.846427            5.384026           -1.592526
 H            6.407652            6.925680           -2.753627

