94

 C            0.651786           -0.724405           -5.765409
 C            0.037467           -1.908041           -5.199473
 C           -0.488427           -1.886289           -3.951729
 C           -0.472371           -0.674189           -3.142138
 C            0.128255            0.519645           -3.722106
 C            0.699855            0.429931           -5.059724
 C            0.147742            1.704340           -3.025143
 C           -0.452007            1.792852           -1.727977
 N           -0.451238            2.986147           -1.073213
 C           -1.052598            3.042956            0.144694
 C           -1.059924            4.274036            0.880516
 C           -1.671321            4.346190            2.109700
 C           -1.686712            5.586069            2.876110
 C           -2.291771            5.653268            4.085334
 C           -2.941588            4.488295            4.653345
 C           -2.956125            3.309431            3.987228
 C           -2.323768            3.173479            2.680907
 C           -2.334424            1.980515            1.997127
 C           -1.698412            1.871020            0.714853
 N           -1.701265            0.681104            0.058126
 C           -1.067552            0.611996           -1.143100
 C           -1.013309           -0.638373           -1.869095
 C           -1.650395           -1.821506           -1.235582
 C           -2.991930           -2.053859           -1.562894
 C           -3.707060           -1.258852           -2.548602
 C           -5.005395           -1.510166           -2.855959
 C           -5.722972           -2.580923           -2.206281
 C           -5.108624           -3.344565           -1.267811
 C           -3.724093           -3.103560           -0.900411
 C           -3.100447           -3.842889            0.088169
 C           -1.741086           -3.616609            0.428128
 C           -1.164678           -4.380392            1.476603
 C            0.162123           -4.221538            1.832077
 C            0.748991           -4.980379            2.922739
 C            2.062238           -4.846273            3.236360
 C            2.900677           -3.942811            2.485019
 C            2.390778           -3.214199            1.459139
 C            0.987818           -3.305068            1.085851
 C            0.434794           -2.556915            0.039533
 C            1.389251           -1.752453           -0.768354
 C            1.803318           -0.452199           -0.295172
 N            1.322183            0.033584            0.882085
 C            1.740560            1.258613            1.289087
 C            1.245370            1.805680            2.521284
 C            1.657674            3.044952            2.947980
 C            1.163295            3.626081            4.190543
 C            1.584863            4.841976            4.610853
 C            2.540253            5.605183            3.831133
 C            3.023904            5.122022            2.662694
 C            2.608403            3.819547            2.156434
 C            3.095388            3.324917            0.970315
 C            2.683828            2.034115            0.496564
 N            3.181840            1.544910           -0.668054
 C            2.762251            0.313059           -1.074745
 C            3.296696           -0.247250           -2.277501
 C            2.929294           -1.510306           -2.680498
 C            3.500889           -2.106689           -3.880884
 C            3.179458           -3.366928           -4.257677
 C            2.245506           -4.152126           -3.477729
 C            1.663560           -3.635385           -2.369022
 C            1.969862           -2.286575           -1.908373
 C           -0.961171           -2.635322           -0.278408
 H            1.070251           -0.799890           -6.767917
 H            0.020641           -2.810749           -5.808294
 H           -0.944108           -2.775978           -3.511491
 H            1.161556            1.330046           -5.465195
 H            0.609414            2.607003           -3.432694
 H           -0.562520            5.136150            0.430398
 H           -1.191410            6.451308            2.434905
 H           -2.311615            6.576130            4.663335
 H           -3.415482            4.600031            5.627765
 H           -3.442519            2.426090            4.401231
 H           -2.813785            1.084213            2.399436
 H           -3.170919           -0.444887           -3.039102
 H           -5.538764           -0.912791           -3.593361
 H           -6.760536           -2.747588           -2.490424
 H           -5.630863           -4.153907           -0.760551
 H           -3.653502           -4.610801            0.628516
 H           -1.791643           -5.097383            2.006139
 H            0.096188           -5.652953            3.476391
 H            2.516107           -5.406924            4.051642
 H            3.948308           -3.863516            2.770061
 H            3.028726           -2.530199            0.897688
 H            0.531680            1.202303            3.089165
 H            0.438304            3.044218            4.760780
 H            1.221932            5.283303            5.538013
 H            2.850326            6.574306            4.219970
 H            3.740017            5.684703            2.063819
 H            3.799722            3.888436            0.354553
 H            4.006880            0.356121           -2.847010
 H            4.198123           -1.498083           -4.456349
 H            3.607378           -3.824175           -5.148573
 H            2.029448           -5.164971           -3.814223
 H            0.953458           -4.218946           -1.778487

