90

 C           -2.435213            8.532950           -2.234098
 C           -2.589445            7.328997           -2.829603
 C           -2.316758            6.100572           -2.088036
 N           -2.476596            4.920031           -2.671484
 C           -2.214070            3.774090           -1.915993
 C           -2.374443            2.513042           -2.510414
 C           -2.124315            1.359550           -1.750546
 N           -2.278694            0.104897           -2.345175
 C           -2.027833           -0.968848           -1.607912
 C           -2.151921           -2.302926           -2.188589
 C           -1.858474           -3.398153           -1.454837
 C           -1.432065           -3.290446           -0.060337
 C           -1.188035           -4.574610            0.643900
 C           -2.234870           -5.090998            1.413788
 C           -3.464151           -4.354985            1.663788
 C           -4.451340           -4.869472            2.440599
 C           -4.318193           -6.178495            3.035938
 C           -3.205205           -6.920908            2.811468
 C           -2.125780           -6.413028            1.982716
 C           -1.009465           -7.180559            1.704784
 C            0.063342           -6.662795            0.932316
 C            1.167771           -7.502061            0.632049
 C            2.256056           -7.025635           -0.076854
 C            3.366884           -7.891649           -0.430265
 C            4.454259           -7.399558           -1.075442
 C            4.527031           -5.997307           -1.412811
 C            3.504688           -5.155823           -1.112487
 C            2.300476           -5.633494           -0.452103
 C            1.215351           -4.799401           -0.166290
 C            1.365154           -3.354323           -0.469372
 C            1.213332           -2.922818           -1.856459
 C            1.327571           -1.622848           -2.204471
 C            1.585203           -0.605387           -1.188824
 N            1.619352            0.676631           -1.526402
 C            1.822216            1.616167           -0.511896
 C            1.816736            2.981240           -0.835836
 C            1.977830            3.929537            0.186610
 N            1.941693            5.288896           -0.133202
 C            2.082725            6.164146            0.854334
 C            2.039348            7.597579            0.578423
 C            2.198778            8.489893            1.581882
 C            2.416261            8.059149            2.953186
 C            2.459925            6.748442            3.281875
 C            2.291030            5.725892            2.253045
 N            2.331777            4.440223            2.578675
 C            2.168242            3.500277            1.558477
 C            2.187500            2.133852            1.879823
 C            2.012323            1.186238            0.859982
 N            2.000946           -0.172381            1.186615
 C            1.779851           -1.045354            0.212139
 C            1.680279           -2.468788            0.510161
 C            0.029635           -5.307219            0.457091
 C           -1.338302           -2.082740            0.550534
 C           -1.607544           -0.858134           -0.192421
 N           -1.459623            0.324450            0.393003
 C           -1.706354            1.470339           -0.366763
 C           -1.538010            2.732154            0.225144
 C           -1.786575            3.885138           -0.534749
 N           -1.620472            5.140364            0.057289
 C           -1.870482            6.214493           -0.680179
 C           -1.718803            7.550309           -0.109020
 C           -1.992995            8.644925           -0.853621
 H           -2.637295            9.460859           -2.771337
 H           -2.917665            7.217398           -3.865728
 H           -2.688870            2.429549           -3.556405
 H           -2.480984           -2.359343           -3.229048
 H           -1.936551           -4.403781           -1.873769
 H           -3.572492           -3.366838            1.213606
 H           -5.367163           -4.311987            2.635866
 H           -5.132733           -6.542283            3.660760
 H           -3.084442           -7.913008            3.244939
 H           -0.937833           -8.201848            2.081133
 H            1.144885           -8.538623            0.970663
 H            3.291043           -8.944686           -0.161512
 H            5.293011           -8.037305           -1.351083
 H            5.427251           -5.640133           -1.912355
 H            3.568021           -4.095368           -1.362185
 H            1.004126           -3.696652           -2.597802
 H            1.219133           -1.274052           -3.235074
 H            1.679239            3.303682           -1.873678
 H            1.875133            7.894663           -0.459836
 H            2.170959            9.564205            1.394900
 H            2.543927            8.836841            3.707670
 H            2.619146            6.397659            4.304338
 H            2.326205            1.810970            2.917515
 H            1.834618           -2.771519            1.549522
 H           -1.038670           -1.973719            1.597638
 H           -1.215362            2.815033            1.269118
 H           -1.381489            7.607160            0.928536
 H           -1.892385            9.650306           -0.442235

