94

 C           -0.514853           -3.849030            4.997962
 C           -0.675358           -4.552249            3.740544
 C           -0.852722           -3.874298            2.581014
 C           -0.906124           -2.421501            2.558799
 C           -0.759787           -1.715071            3.831607
 C           -0.548699           -2.497602            5.048603
 N           -0.823326           -0.389194            3.937096
 C           -1.052679            0.369021            2.791608
 C           -1.133347            1.766881            2.935367
 C           -1.398849            2.575844            1.826017
 C           -1.488315            4.005221            1.912570
 C           -1.740878            4.753171            0.788070
 C           -1.842381            6.203105            0.797406
 C           -2.085760            6.889906           -0.344276
 C           -2.251485            6.200673           -1.610661
 C           -2.175219            4.852602           -1.687669
 C           -1.920498            4.055043           -0.488015
 N           -1.859203            2.731283           -0.602524
 C           -1.592650            1.965633            0.531817
 C           -1.500624            0.569143            0.386760
 C           -1.220405           -0.242593            1.493362
 C           -1.100128           -1.677462            1.407310
 C           -1.297572           -2.365287            0.104366
 C           -2.616931           -2.702119           -0.220333
 C           -3.751356           -2.286958            0.590050
 C           -5.022120           -2.626930            0.255288
 C           -5.289540           -3.419285           -0.921857
 C           -4.268125           -3.840029           -1.709568
 C           -2.892408           -3.504676           -1.386152
 C           -1.837678           -3.960374           -2.155522
 C           -0.496991           -3.608196           -1.848528
 C            0.545275           -4.123078           -2.662785
 C            1.867399           -3.790718           -2.429627
 C            2.939866           -4.327277           -3.248767
 C            4.228222           -3.958691           -3.035670
 C            4.553344           -3.024485           -1.983792
 C            3.581379           -2.505259           -1.191103
 C            2.184144           -2.868818           -1.367336
 C            1.163800           -2.345892           -0.563608
 C            1.568151           -1.296297            0.408307
 C            1.563594            0.078301           -0.043144
 C            1.190152            0.457690           -1.336947
 C            1.228308            1.811848           -1.725857
 N            0.871927            2.135251           -3.033132
 C            0.885621            3.413179           -3.407048
 C            0.510053            3.748716           -4.780211
 C            0.517395            5.035108           -5.199037
 C            0.892844            6.113138           -4.303668
 C            1.249026            5.860992           -3.021170
 C            1.268192            4.502403           -2.506175
 C            1.633303            4.188627           -1.218067
 C            1.631116            2.824481           -0.779514
 C            2.005288            2.446783            0.516193
 C            1.991925            1.093059            0.892588
 N            2.415096            0.772161            2.181963
 C            2.445136           -0.505050            2.551996
 C            2.914903           -0.826888            3.899250
 C            3.013595           -2.114236            4.301861
 C            2.648280           -3.203479            3.416669
 C            2.179868           -2.960663            2.169392
 C            2.042726           -1.602629            1.668522
 C           -0.200854           -2.746537           -0.735068
 H           -0.366469           -4.447930            5.896265
 H           -0.647089           -5.640539            3.764264
 H           -0.969569           -4.395629            1.628843
 H           -0.426745           -1.936791            5.977302
 H           -0.979160            2.205189            3.924195
 H           -1.350354            4.475576            2.886856
 H           -1.716874            6.708519            1.754439
 H           -2.165559            7.976208           -0.349611
 H           -2.438296            6.809856           -2.494855
 H           -2.289776            4.305122           -2.626160
 H           -1.641151            0.129870           -0.607081
 H           -3.556007           -1.682651            1.478275
 H           -5.871180           -2.310017            0.860331
 H           -6.326213           -3.661310           -1.151255
 H           -4.445848           -4.436054           -2.603781
 H           -2.025632           -4.600265           -3.018712
 H            0.285149           -4.788395           -3.487095
 H            2.670697           -5.029530           -4.036659
 H            5.042850           -4.348741           -3.643927
 H            5.599499           -2.750802           -1.849866
 H            3.833290           -1.799004           -0.397261
 H            0.864944           -0.288940           -2.068805
 H            0.230087            2.917265           -5.429878
 H            0.242957            5.301759           -6.219580
 H            0.878061            7.126277           -4.702679
 H            1.531048            6.660631           -2.336815
 H            1.929548            4.963359           -0.510150
 H            2.315134            3.196309            1.247574
 H            3.170480            0.016538            4.543875
 H            3.364485           -2.371697            5.300966
 H            2.755383           -4.218710            3.795979
 H            1.889347           -3.771887            1.499379

