94

 C           10.227457            3.132250           -2.221226
 C            9.328057            2.125287           -2.112548
 C            8.070048            2.321539           -1.411629
 C            7.120415            1.337244           -1.273209
 C            5.900888            1.600833           -0.566087
 C            4.899175            0.635990           -0.401788
 C            3.718201            0.952773            0.293643
 N            2.738484           -0.032639            0.415991
 C            1.604654            0.251500            1.050594
 C            0.555340           -0.775380            1.164556
 C            0.807007           -2.154006            0.673599
 C            1.510069           -3.005571            1.533730
 C            2.078243           -2.553233            2.793770
 C            2.754974           -3.400098            3.611501
 C            2.927680           -4.788189            3.255567
 C            2.411785           -5.265535            2.095052
 C            1.681507           -4.395124            1.190256
 C            1.130819           -4.877250            0.016937
 C            0.430177           -4.020364           -0.871328
 C           -0.124441           -4.570525           -2.056009
 C           -0.803911           -3.777602           -2.962788
 C           -1.382121           -4.338574           -4.171245
 C           -2.024565           -3.548223           -5.067645
 C           -2.142018           -2.128982           -4.832581
 C           -1.615046           -1.564903           -3.715414
 C           -0.921730           -2.362173           -2.716112
 C           -0.366030           -1.805126           -1.558212
 C           -0.407215           -0.324690           -1.448953
 C           -1.634090            0.349076           -0.990787
 N           -2.670731           -0.375841           -0.580473
 C           -3.829625            0.271257           -0.150208
 C           -4.910378           -0.515922            0.285826
 C           -6.092437            0.091894            0.728234
 C           -7.225860           -0.659737            1.182624
 C           -8.364478           -0.014252            1.603732
 C           -9.552040           -0.710590            2.069439
 C          -10.647316           -0.023306            2.473155
 C          -10.666682            1.427473            2.455500
 C           -9.594640            2.136353            2.032881
 C           -8.385129            1.450328            1.580667
 N           -7.351579            2.180748            1.165897
 C           -6.196036            1.532514            0.732529
 C           -5.115284            2.319878            0.293070
 C           -3.934429            1.711369           -0.144865
 C           -2.797469            2.461230           -0.593505
 C           -1.657273            1.816762           -1.008145
 C           -0.473832            2.531605           -1.454357
 C            0.630918            1.859364           -1.853508
 C            0.658735            0.412053           -1.859912
 C            0.285943           -2.619879           -0.576829
 C           -0.613260           -0.484987            1.795371
 C           -0.863330            0.820437            2.368880
 C            0.070869            1.797907            2.306648
 C            1.343360            1.567952            1.644682
 C            2.309249            2.539593            1.540146
 C            3.537739            2.272464            0.850861
 C            4.541328            3.234722            0.694858
 C            5.717904            2.921637           -0.010677
 N            6.684534            3.915814           -0.156694
 C            7.803212            3.636254           -0.822756
 C            8.811337            4.684481           -0.975680
 C            9.961763            4.436228           -1.642635
 H           11.174326            2.997172           -2.743078
 H            9.515652            1.141611           -2.542717
 H            7.272793            0.342527           -1.694927
 H            5.019903           -0.370717           -0.809991
 H            1.955468           -1.504025            3.064920
 H            3.184646           -3.057797            4.551072
 H            3.479507           -5.428139            3.941661
 H            2.528032           -6.308569            1.805956
 H            1.228536           -5.931402           -0.241325
 H           -0.004362           -5.637266           -2.243452
 H           -1.280081           -5.411088           -4.327232
 H           -2.464298           -3.954978           -5.976384
 H           -2.665446           -1.531035           -5.576174
 H           -1.711914           -0.492841           -3.540119
 H           -4.813373           -1.604510            0.270665
 H           -7.161660           -1.748979            1.183767
 H           -9.525037           -1.800125            2.078433
 H          -11.544473           -0.533897            2.821765
 H          -11.576897            1.923061            2.794762
 H           -9.580666            3.227838            2.008277
 H           -5.215389            3.407719            0.299029
 H           -2.861450            3.550308           -0.594548
 H           -0.512622            3.620296           -1.450584
 H            1.531022            2.379829           -2.182596
 H            1.578457           -0.075724           -2.196678
 H           -1.406275           -1.234423            1.875658
 H           -1.828576            0.979969            2.850687
 H           -0.099482            2.782331            2.741066
 H            2.160652            3.530611            1.971436
 H            4.425498            4.236827            1.114204
 H            8.584535            5.655009           -0.529752
 H           10.723981            5.206400           -1.765688

