94

 C            2.247288            3.851341            4.645805
 C            2.105708            4.570012            3.392370
 C            1.922513            3.911504            2.225672
 C            1.864590            2.449633            2.202183
 N            1.681357            1.838330            1.036490
 C            1.618841            0.446146            0.996578
 C            1.791122           -0.342625            2.195395
 C            1.967913            0.353496            3.439493
 C            2.008983            1.725221            3.468502
 C            2.197777            2.498495            4.684780
 C            1.800107           -1.736951            2.119312
 C            1.659092           -2.377624            0.873745
 N            1.731734           -3.768252            0.845578
 C            1.624595           -4.399112           -0.322897
 C            1.711971           -5.858185           -0.346557
 C            1.624478           -6.528979           -1.518368
 C            1.436885           -5.825904           -2.773197
 C            1.340950           -4.474734           -2.807605
 C            1.430202           -3.690919           -1.587819
 C            1.345501           -2.317934           -1.562746
 C            1.459063           -1.601510           -0.326137
 C            1.401435           -0.191795           -0.246790
 C            1.224185            0.591081           -1.498373
 C            2.396326            0.965837           -2.166266
 C            3.722273            0.736835           -1.613533
 C            4.844144            1.104802           -2.284090
 C            4.756264            1.738500           -3.578005
 C            3.545239            1.972605           -4.143090
 C            2.319742            1.588905           -3.464262
 C            1.082607            1.780483           -4.050803
 C           -0.113874            1.422299           -3.376238
 C           -1.352490            1.617058           -4.040830
 C           -2.551797            1.311950           -3.423468
 C           -3.821116            1.489708           -4.106710
 C           -4.993600            1.229186           -3.475412
 C           -4.995749            0.770179           -2.106981
 C           -3.830315            0.583668           -1.435515
 C           -2.542708            0.832084           -2.064567
 C           -1.326530            0.642651           -1.396056
 C           -1.417805            0.278642            0.042051
 C           -1.565630           -1.060350            0.451833
 C           -1.627490           -2.156930           -0.471516
 C           -1.776878           -3.445842           -0.018149
 C           -1.841641           -4.600164           -0.898553
 C           -1.991211           -5.849287           -0.396328
 C           -2.088240           -6.071816            1.034181
 C           -2.028788           -5.041506            1.908905
 C           -1.869280           -3.670791            1.425857
 N           -1.821780           -2.679050            2.313050
 C           -1.675307           -1.368943            1.858280
 C           -1.648067           -0.340594            2.815692
 C           -1.548553            0.994871            2.411808
 C           -1.545660            2.077969            3.352524
 C           -1.502494            3.378984            2.913215
 C           -1.506584            4.526964            3.804341
 C           -1.496677            5.788184            3.310243
 C           -1.472100            6.030458            1.879713
 C           -1.451580            5.005846            0.996963
 C           -1.463113            3.621301            1.469052
 N           -1.444455            2.640309            0.571113
 C           -1.462379            1.317857            1.007307
 C           -0.070897            0.867655           -2.049058
 H            2.393664            4.442395            5.548997
 H            2.149521            5.658460            3.428790
 H            1.802428            4.422837            1.267221
 H            2.071358           -0.236308            4.351319
 H            2.300997            1.947838            5.619113
 H            1.920211           -2.348006            3.017399
 H            1.848805           -6.359540            0.613557
 H            1.693434           -7.616125           -1.556167
 H            1.379407           -6.424458           -3.681309
 H            1.201274           -3.934347           -3.743809
 H            1.200902           -1.748497           -2.484957
 H            3.795033            0.269538           -0.630333
 H            5.835040            0.937771           -1.865430
 H            5.683228            2.019251           -4.075005
 H            3.453716            2.453692           -5.115425
 H            1.009701            2.218803           -5.045985
 H           -1.344731            2.024178           -5.051736
 H           -3.794901            1.840947           -5.136893
 H           -5.952827            1.360413           -3.973080
 H           -5.958444            0.583839           -1.634045
 H           -3.839123            0.245093           -0.398254
 H           -1.553948           -1.939919           -1.540287
 H           -1.757290           -4.420517           -1.970315
 H           -2.038841           -6.722175           -1.045588
 H           -2.207602           -7.099810            1.376145
 H           -2.090476           -5.179133            2.989894
 H           -1.716735           -0.600557            3.873811
 H           -1.581981            1.841693            4.416309
 H           -1.518378            4.331272            4.875955
 H           -1.506318            6.657131            3.966777
 H           -1.470785            7.067773            1.545602
 H           -1.423934            5.155314           -0.084882

