94

 C            1.624573            5.581605           -5.002189
 C            1.761298            6.597790           -3.975136
 C            1.859750            6.262143           -2.668646
 C            1.826603            4.857988           -2.260234
 N            1.931520            4.566294           -0.966147
 C            1.887136            3.230417           -0.568128
 C            1.982491            2.942808            0.805071
 C            1.928418            1.617528            1.252102
 C            2.011936            1.262792            2.638260
 C            1.921406           -0.052972            3.026928
 C            2.016361           -0.472622            4.414133
 C            1.937754           -1.782433            4.748786
 C            1.742156           -2.799370            3.737833
 C            1.624661           -2.479758            2.421963
 C            1.484210           -3.539848            1.391230
 C            2.683406           -4.062784            0.890863
 C            3.987893           -3.572347            1.308799
 C            5.136877           -4.110298            0.824856
 C            5.100908           -5.196130           -0.125750
 C            3.911729           -5.682915           -0.561072
 C            2.658770           -5.130888           -0.075819
 C            1.440962           -5.614421           -0.515773
 C            0.218843           -5.079371           -0.031464
 C           -0.994645           -5.623480           -0.526373
 C           -2.219901           -5.152823           -0.092653
 C           -3.463882           -5.713655           -0.590323
 C           -4.660848           -5.244222           -0.157042
 C           -4.713956           -4.170366            0.806226
 C           -3.573469           -3.623680            1.300615
 C           -2.261310           -4.090429            0.879896
 C           -1.070517           -3.552508            1.385070
 C           -1.226165           -2.499184            2.420870
 C           -1.240475           -2.823465            3.740624
 C           -1.446774           -1.822607            4.765554
 C           -1.644308           -0.523326            4.440205
 C           -1.672703           -0.101564            3.050677
 C           -1.899720            1.201143            2.675068
 C           -1.942082            1.560117            1.288147
 C           -2.153828            2.873175            0.853137
 C           -2.186045            3.166001           -0.522105
 N           -2.397494            4.488926           -0.908649
 C           -2.420281            4.786485           -2.205552
 C           -2.634562            6.177689           -2.603084
 C           -2.670463            6.518119           -3.911600
 C           -2.500683            5.519739           -4.950853
 C           -2.296130            4.217245           -4.640229
 C           -2.243526            3.779703           -3.255390
 C           -2.041350            2.472317           -2.882168
 C           -2.003090            2.112612           -1.494117
 C           -1.795974            0.798432           -1.058328
 C           -1.760450            0.506225            0.318129
 N           -1.541265           -0.813843            0.707928
 C           -1.475700           -1.108334            2.002487
 C            0.210375           -4.022148            0.945449
 C            1.742457           -1.076046            1.992290
 N            1.705620           -0.784846            0.695913
 C            1.781834            0.547000            0.294512
 C            1.698599            0.833582           -1.081286
 C            1.743357            2.159251           -1.527429
 C            1.645002            2.513659           -2.913974
 C            1.680862            3.832922           -3.297368
 C            1.584911            4.266325           -4.681200
 H            1.556190            5.918999           -6.035372
 H            1.780768            7.639000           -4.297110
 H            1.961983            7.003259           -1.873259
 H            2.091496            3.767581            1.512477
 H            2.151439            2.058735            3.370722
 H            2.156412            0.303152            5.165858
 H            2.016175           -2.113490            5.783826
 H            1.682124           -3.837109            4.069708
 H            4.021209           -2.746437            2.020826
 H            6.111471           -3.737046            1.134185
 H            6.048318           -5.601739           -0.476155
 H            3.856805           -6.496709           -1.282252
 H            1.403232           -6.419722           -1.248979
 H           -0.944620           -6.425609           -1.262284
 H           -3.396015           -6.519443           -1.319298
 H           -5.601820           -5.655543           -0.517827
 H           -5.694178           -3.813584            1.116976
 H           -3.620435           -2.808700            2.024240
 H           -1.083351           -3.853437            4.065438
 H           -1.432707           -2.156740            5.802427
 H           -1.792346            0.241804            5.201251
 H           -2.056489            1.983349            3.418881
 H           -2.291245            3.685058            1.570571
 H           -2.757660            6.905608           -1.798556
 H           -2.827390            7.550015           -4.225885
 H           -2.545241            5.859490           -5.984575
 H           -2.167049            3.458400           -5.410837
 H           -1.908300            1.686298           -3.626387
 H           -1.653978           -0.015802           -1.773541
 H            1.589785            0.005027           -1.786042
 H            1.541832            1.713933           -3.648304
 H            1.482405            3.493959           -5.442260

