96

 C            5.541849            8.194840           -0.335312
 C            4.766554            7.371546            0.410841
 C            4.547782            5.986885            0.017649
 C            3.759244            5.135735            0.759794
 C            3.537498            3.782317            0.348957
 C            2.722779            2.914335            1.096707
 C            2.504789            1.595852            0.681209
 C            1.682358            0.675243            1.411927
 C            1.516030           -0.612329            0.962986
 C            0.704489           -1.600656            1.653908
 C            0.571794           -2.857512            1.170909
 C            1.240480           -3.258403           -0.060640
 C            1.120314           -4.677052           -0.484776
 C            2.097620           -5.554511           -0.002551
 C            3.164129           -5.123863            0.888233
 C            4.108433           -5.991897            1.332753
 C            4.081750           -7.380279            0.936630
 C            3.106000           -7.837364            0.112324
 C            2.077263           -6.943367           -0.389637
 C            1.082964           -7.394621           -1.237702
 C            0.079813           -6.517229           -1.725861
 C           -0.915888           -7.038161           -2.592366
 C           -1.916589           -6.230113           -3.100132
 C           -2.937748           -6.758561           -3.987293
 C           -3.919925           -5.957400           -4.471324
 C           -3.960586           -4.559051           -4.113529
 C           -3.023178           -4.024878           -3.289582
 C           -1.950910           -4.836002           -2.734158
 C           -0.980682           -4.312200           -1.872122
 C           -1.118551           -2.874079           -1.525766
 C           -0.456206           -1.900953           -2.385454
 C           -0.615616           -0.573144           -2.180214
 C           -1.453778           -0.075198           -1.102130
 C           -1.659673            1.261673           -0.862156
 C           -2.512840            1.680920            0.212129
 C           -2.778846            3.026613            0.489742
 C           -3.627166            3.391764            1.549566
 C           -3.904146            4.765362            1.843499
 C           -4.728277            5.119499            2.888669
 C           -5.007427            6.511827            3.210263
 C           -5.818448            6.840121            4.244738
 C           -6.437095            5.810584            5.055079
 C           -6.212666            4.499363            4.798952
 C           -5.342395            4.086519            3.706854
 C           -5.092620            2.759045            3.438573
 C           -4.231233            2.368653            2.362823
 C           -3.967320            1.017244            2.090053
 C           -3.121437            0.656996            1.029030
 N           -2.896204           -0.699230            0.787167
 C           -2.112524           -1.051824           -0.229855
 C           -1.910450           -2.472099           -0.498753
 C            0.072818           -5.128903           -1.350100
 C            2.017275           -2.383239           -0.748990
 C            2.186350           -1.012168           -0.277756
 N            2.946337           -0.181566           -0.988675
 C            3.129785            1.125016           -0.532828
 C            3.946007            1.987659           -1.281547
 C            4.160308            3.309339           -0.859935
 C            4.986860            4.207433           -1.609454
 C            5.182859            5.507360           -1.199031
 C            6.014563            6.434365           -1.953623
 C            6.182729            7.714294           -1.542662
 H            5.707525            9.233612           -0.054049
 H            4.281852            7.716630            1.323289
 H            3.284468            5.479239            1.678859
 H            2.254778            3.274301            2.013501
 H            1.195403            1.021643            2.324824
 H            0.201778           -1.288116            2.570302
 H           -0.041014           -3.605125            1.675462
 H            3.186765           -4.075422            1.192209
 H            4.908321           -5.666765            1.996863
 H            4.861941           -8.036834            1.318322
 H            3.063747           -8.880359           -0.199032
 H            1.057652           -8.440373           -1.545884
 H           -0.880222           -8.096385           -2.853300
 H           -2.884897           -7.815788           -4.244230
 H           -4.694795           -6.339082           -5.134017
 H           -4.765019           -3.950836           -4.525120
 H           -3.056535           -2.966295           -3.024046
 H            0.173917           -2.286529           -3.187567
 H           -0.117049            0.163329           -2.812090
 H           -1.183603            2.025246           -1.479244
 H           -2.323896            3.803384           -0.125671
 H           -3.444081            5.528940            1.216322
 H           -4.538922            7.273971            2.588806
 H           -6.030472            7.877834            4.497271
 H           -7.085075            6.129875            5.869918
 H           -6.673377            3.713823            5.396878
 H           -5.547766            1.973858            4.042806
 H           -4.420189            0.229516            2.695905
 H           -2.426748           -3.178596            0.154582
 H            2.541269           -2.660132           -1.666242
 H            4.413416            1.613300           -2.194799
 H            5.458217            3.833808           -2.518846
 H            6.492933            6.057190           -2.856809
 H            6.800480            8.416085           -2.100922

