96

 C           -3.332560           -2.796750           -4.591172
 C           -2.687330           -3.772611           -3.735009
 C           -2.131873           -3.404733           -2.554533
 C           -2.183732           -2.026782           -2.096016
 C           -2.863882           -1.049717           -2.947036
 C           -3.415908           -1.498104           -4.225099
 N           -3.020001            0.227371           -2.606575
 C           -2.523210            0.666369           -1.381675
 C           -2.733667            2.007643           -1.022269
 C           -2.292305            2.493025            0.217167
 C           -2.517674            3.849761            0.615380
 C           -2.081143            4.318175            1.834407
 C           -2.322031            5.689166            2.262215
 C           -1.876401            6.134642            3.461586
 C           -1.139146            5.258617            4.349511
 C           -0.890848            3.972133            4.003240
 C           -1.360143            3.432080            2.735145
 C           -1.139602            2.121867            2.374538
 C           -1.602733            1.607623            1.121287
 C           -1.389052            0.268986            0.754799
 C           -1.828842           -0.226215           -0.481112
 C           -1.644463           -1.592171           -0.896654
 C           -0.987245           -2.560234            0.022158
 C           -1.825743           -3.185092            0.953185
 C           -3.230191           -2.835088            1.099904
 C           -4.022482           -3.453200            2.011831
 C           -3.496359           -4.492987            2.864656
 C           -2.195166           -4.863869            2.766194
 C           -1.311734           -4.227879            1.805143
 C            0.009167           -4.615838            1.674064
 C            0.874892           -3.976820            0.748195
 C            2.216698           -4.429251            0.651161
 C            3.114229           -3.830137           -0.213404
 C            4.484143           -4.298658           -0.326785
 C            5.364174           -3.678810           -1.152945
 C            4.947859           -2.537781           -1.933708
 C            3.675125           -2.072726           -1.861144
 C            2.684999           -2.701537           -1.000559
 C            1.365851           -2.240957           -0.908893
 C            1.051158           -1.004836           -1.672891
 C            1.254478            0.266806           -1.020261
 C            1.720336            0.397070            0.294770
 C            1.907806            1.661674            0.880980
 C            2.385442            1.803290            2.222546
 C            2.565745            3.045820            2.790233
 C            3.063018            3.209401            4.148850
 C            3.241265            4.441538            4.684532
 C            2.934399            5.633699            3.920653
 C            2.465150            5.539641            2.653082
 C            2.260253            4.242885            2.023644
 C            1.794152            4.129278            0.732823
 C            1.608247            2.848312            0.121842
 C            1.147792            2.728071           -1.197607
 C            0.979399            1.463414           -1.782412
 N            0.560128            1.408129           -3.110344
 C            0.420351            0.222140           -3.693714
 C            0.001198            0.184794           -5.094172
 C           -0.104290           -0.995648           -5.747742
 C            0.186193           -2.246952           -5.075405
 C            0.549374           -2.271950           -3.771551
 C            0.680846           -1.044170           -3.004222
 C            0.403107           -2.892826           -0.072141
 H           -3.743920           -3.149336           -5.536704
 H           -2.663625           -4.805374           -4.077472
 H           -1.637096           -4.131932           -1.908538
 H           -3.889523           -0.735767           -4.846795
 H           -3.245086            2.666805           -1.727100
 H           -3.049742            4.504820           -0.074110
 H           -2.875615            6.334802            1.582084
 H           -2.056259            7.155481            3.794061
 H           -0.794644            5.671483            5.295317
 H           -0.328573            3.304860            4.655502
 H           -0.593812            1.447981            3.035944
 H           -0.865931           -0.398217            1.443485
 H           -3.635837           -2.051013            0.456316
 H           -5.072134           -3.183405            2.125592
 H           -4.173755           -4.962301            3.576750
 H           -1.772861           -5.644132            3.398407
 H            0.404405           -5.425357            2.288276
 H            2.534746           -5.263226            1.277658
 H            4.773092           -5.159979            0.274350
 H            6.395228           -4.016451           -1.249423
 H            5.687501           -2.064468           -2.579021
 H            3.366787           -1.209011           -2.454565
 H            1.946780           -0.498977            0.876312
 H            2.609491            0.898057            2.786342
 H            3.290264            2.305702            4.712051
 H            3.619933            4.574903            5.696220
 H            3.096056            6.597494            4.399592
 H            2.226186            6.424770            2.064317
 H            1.554573            5.017192            0.147129
 H            0.913479            3.616654           -1.788173
 H           -0.218822            1.144670           -5.564523
 H           -0.413757           -1.042206           -6.791080
 H            0.090673           -3.162776           -5.656857
 H            0.754983           -3.211039           -3.254517

