86

 C            5.366575            3.656365            5.471589
 C            4.667326            4.334354            4.545057
 C            4.028765            3.483951            3.535025
 C            3.254645            3.860510            2.475834
 C            2.719681            2.855175            1.588639
 C            3.009589            1.468741            1.827112
 C            3.830650            1.097030            2.957075
 C            4.305258            2.077435            3.763281
 S            5.310331            1.909553            5.197309
 C            2.483634            0.494236            0.965504
 C            1.672605            0.845800           -0.122315
 C            1.398239            2.235079           -0.373603
 C            1.922374            3.208476            0.489893
 C            0.608622            2.621202           -1.518912
 C            0.144871            1.664017           -2.372334
 C           -0.634500            1.840052           -3.602772
 C           -0.906438            0.693440           -4.248708
 S           -0.236517           -0.714944           -3.409309
 C            0.427062            0.266232           -2.109374
 C            1.122426           -0.158510           -1.017911
 C            1.411736           -1.602222           -0.832423
 C            2.588046           -2.073395           -1.429097
 C            3.546344           -1.190540           -2.076533
 C            4.673200           -1.673243           -2.659998
 C            4.958680           -3.088513           -2.658353
 C            4.100059           -3.957302           -2.067967
 C            2.881348           -3.484702           -1.434945
 C            1.981677           -4.363236           -0.860490
 C            0.799527           -3.896212           -0.228868
 C           -0.090329           -4.850283            0.329630
 C           -1.251299           -4.457714            0.969735
 C           -2.172885           -5.431465            1.527854
 C           -3.292304           -5.033304            2.182973
 C           -3.586326           -3.627545            2.330337
 C           -2.751641           -2.685528            1.821025
 C           -1.536822           -3.051795            1.109223
 C           -0.652937           -2.099519            0.585659
 C           -0.951040           -0.684336            0.918563
 C           -0.456588           -0.130336            2.060471
 S            0.565867           -0.894494            3.270181
 C            0.644264            0.573292            4.258444
 C           -0.070333            1.577942            3.723766
 C           -0.741947            1.232226            2.466118
 C           -1.561865            2.009106            1.702000
 C           -2.158399            1.459073            0.507922
 C           -3.039270            2.228623           -0.266329
 C           -3.654650            1.701251           -1.411259
 C           -3.382008            0.343036           -1.790667
 C           -4.012732           -0.207350           -2.968865
 C           -4.848674            0.582720           -3.685298
 S           -5.733432            0.176711           -5.150513
 C           -6.475447            1.779330           -5.253540
 C           -6.081240            2.582326           -4.249938
 C           -5.141781            1.955044           -3.314368
 C           -4.557734            2.498496           -2.206842
 C           -2.499251           -0.426939           -1.018078
 C           -1.869835            0.105814            0.115426
 C            0.510160           -2.488227           -0.156365
 H            5.924911            4.038188            6.310839
 H            4.556165            5.410525            4.501465
 H            3.027899            4.905862            2.277823
 H            4.037400            0.040896            3.127925
 H            2.706522           -0.561354            1.148068
 H            1.709521            4.260053            0.300822
 H            0.407173            3.677462           -1.683069
 H           -0.943186            2.829095           -3.917614
 H           -1.458118            0.544413           -5.163159
 H            3.337547           -0.118763           -2.079631
 H            5.388828           -1.009692           -3.143594
 H            5.873053           -3.428048           -3.142136
 H            4.293820           -5.028760           -2.051630
 H            2.170765           -5.436824           -0.889094
 H            0.158523           -5.908891            0.248423
 H           -1.930036           -6.485511            1.402000
 H           -3.989915           -5.751105            2.611338
 H           -4.495638           -3.350113            2.861796
 H           -2.981020           -1.624009            1.934550
 H            1.228611            0.563681            5.164722
 H           -0.169981            2.572160            4.141311
 H           -1.789093            3.037546            1.973922
 H           -3.253001            3.255028            0.029916
 H           -3.792218           -1.237675           -3.246662
 H           -7.153981            1.992484           -6.063377
 H           -6.400391            3.605848           -4.098744
 H           -4.755690            3.523926           -1.902328
 H           -2.293810           -1.461805           -1.307954

