86

 C            9.972628            3.575306            2.455529
 C            9.348420            2.387884            2.369602
 C            8.042488            2.444750            1.704522
 C            7.168013            1.425429            1.462554
 C            5.919469            1.697978            0.790915
 C            5.610199            3.040594            0.380580
 C            4.393129            3.302228           -0.264370
 C            3.469971            2.276664           -0.512617
 C            2.210032            2.551573           -1.165339
 C            1.346597            1.526714           -1.364460
 S           -0.243015            1.592119           -2.115152
 C           -0.514670           -0.136682           -1.894238
 C            0.527187           -0.747204           -1.290265
 C            0.628770           -2.204836           -1.079714
 C            1.290305           -2.931510           -2.076900
 C            1.931499           -2.292551           -3.215354
 C            2.559451           -3.019692           -4.174345
 C            2.607725           -4.460541           -4.095496
 C            2.026283           -5.108411           -3.054760
 C            1.341405           -4.370763           -2.007529
 C            0.716717           -5.020641           -0.958633
 C            0.057088           -4.295057            0.067522
 C           -0.581307           -5.012561            1.112379
 C           -1.225990           -4.354071            2.143868
 C           -1.890250           -5.083881            3.209541
 C           -2.492791           -4.426383            4.232209
 C           -2.487488           -2.983184            4.273014
 C           -1.879291           -2.263262            3.295898
 C           -1.217405           -2.912673            2.175457
 C           -0.576150           -2.193266            1.159837
 C           -0.516709           -0.728252            1.332288
 C            0.505687           -0.072746            1.922152
 S            0.185022            1.653106            2.095319
 C           -1.398967            1.523176            1.341162
 C           -2.288850            2.518147            1.108942
 C           -3.536436            2.191157            0.456624
 C           -4.483814            3.184470            0.170835
 C           -5.687750            2.872424           -0.476310
 C           -5.958535            1.510582           -0.848727
 C           -5.012823            0.516721           -0.554977
 C           -3.805313            0.828013            0.087245
 C           -2.828053           -0.195830            0.371335
 C           -1.651285            0.142187            0.973416
 C           -7.192685            1.185922           -1.523701
 C           -8.090084            2.174652           -1.805394
 C           -9.386498            2.064402           -2.482183
 C          -10.039761            3.232258           -2.610416
 S           -9.131577            4.580781           -1.912871
 C           -7.799222            3.544048           -1.419055
 C           -6.658356            3.899798           -0.780713
 C            0.035931           -2.857264            0.048670
 C            1.638054            0.164007           -0.959236
 C            2.825871           -0.124676           -0.353325
 C            3.777257            0.932487           -0.105426
 C            4.997214            0.671942            0.535813
 C            6.556603            4.101289            0.644404
 C            7.712587            3.793988            1.280662
 S            9.022889            4.878661            1.728408
 H           10.930149            3.806985            2.892873
 H            9.731517            1.446108            2.742853
 H            7.384977            0.402708            1.765542
 H            4.157527            4.321082           -0.573381
 H            1.988819            3.572621           -1.470948
 H           -1.439722           -0.574897           -2.234484
 H            1.898785           -1.202721           -3.279697
 H            3.041742           -2.539004           -5.024749
 H            3.119601           -4.999684           -4.891317
 H            2.051378           -6.194229           -2.973819
 H            0.721293           -6.109760           -0.909195
 H           -0.553677           -6.102260            1.091715
 H           -1.882927           -6.171716            3.157309
 H           -2.990304           -4.959487            5.041081
 H           -2.986014           -2.494696            5.109477
 H           -1.879155           -1.171616            3.331304
 H            1.441354           -0.475681            2.276832
 H           -2.097221            3.552995            1.386999
 H           -4.277228            4.217862            0.451154
 H           -5.219288           -0.516987           -0.833545
 H           -3.047642           -1.226925            0.094785
 H           -7.380473            0.149320           -1.797526
 H           -9.741276            1.102467           -2.831074
 H          -10.997784            3.426079           -3.064569
 H           -6.442888            4.926900           -0.490664
 H            3.074226           -1.141048           -0.047923
 H            5.232516           -0.347292            0.843532
 H            6.311700            5.113357            0.326438

