86

 C           -2.551004            8.627711           -1.337541
 C           -2.011770            7.830338           -0.400030
 C           -2.188895            6.397516           -0.658232
 C           -1.769786            5.341803            0.098006
 C           -2.042151            3.994188           -0.342089
 C           -2.732346            3.775519           -1.583849
 C           -2.948203            2.464435           -2.032806
 C           -2.510423            1.361655           -1.285941
 C           -2.674813            0.012234           -1.778888
 C           -2.211905           -1.014103           -1.025061
 S           -2.209117           -2.728460           -1.419294
 C           -1.365728           -3.159583            0.097877
 C           -1.124244           -4.583848            0.300043
 C           -2.230007           -5.340782            0.716307
 C           -3.491171           -4.732321            1.110121
 C           -4.555486           -5.487697            1.484635
 C           -4.469217           -6.928584            1.506036
 C           -3.312202           -7.547873            1.161288
 C           -2.147981           -6.778931            0.758132
 C           -0.967369           -7.397584            0.390208
 C            0.178389           -6.641429            0.028473
 C            1.364979           -7.338875           -0.317065
 C            2.529060           -6.662606           -0.633677
 C            3.742346           -7.374934           -0.993386
 C            4.890931           -6.702779           -1.257917
 C            4.920864           -5.261580           -1.183161
 C            3.805367           -4.557718           -0.860288
 C            2.542237           -5.222535           -0.580800
 C            1.372435           -4.520393           -0.253208
 C            1.502937           -3.070047           -0.145822
 C            1.807799           -2.311740            0.926939
 C            1.884141           -0.878266            0.642081
 C            2.108965            0.145888            1.515553
 C            2.068811            1.509707            1.044495
 C            2.261883            2.582963            1.926226
 C            2.175121            3.911774            1.484863
 C            1.885025            4.177466            0.102462
 C            1.714303            3.104626           -0.785017
 C            1.801940            1.776932           -0.342958
 C            1.605502            0.671593           -1.254454
 C            1.644107           -0.589992           -0.761764
 S            1.383684           -2.095789           -1.633431
 C            1.769041            5.545966           -0.349294
 C            1.950349            6.543065            0.550481
 S            1.869263            8.279297            0.276359
 C            2.245205            8.653652            1.964285
 C            2.418001            7.542525            2.700812
 C            2.259767            6.294420            1.947043
 C            2.366963            5.011578            2.399855
 C            0.140275           -5.203532            0.019279
 C           -1.171558           -2.082056            0.880429
 C           -1.592234           -0.817720            0.273711
 C           -1.427929            0.445638            0.762347
 C           -1.861589            1.577613           -0.021293
 C           -1.634611            2.889186            0.420452
 C           -3.180747            4.911719           -2.357293
 C           -2.910278            6.156661           -1.895134
 S           -3.326804            7.699551           -2.630533
 H           -2.561019            9.703940           -1.387279
 H           -1.477185            8.164161            0.482434
 H           -1.222384            5.487747            1.028869
 H           -3.458828            2.300145           -2.981666
 H           -3.150318           -0.137984           -2.746274
 H           -3.563229           -3.642449            1.104848
 H           -5.498717           -5.028345            1.779159
 H           -5.352539           -7.490699            1.805597
 H           -3.220836           -8.633089            1.174421
 H           -0.900787           -8.486335            0.377408
 H            1.347265           -8.429743           -0.323338
 H            3.693939           -8.461950           -1.042651
 H            5.808880           -7.221777           -1.529608
 H            5.864340           -4.758910           -1.394720
 H            3.840266           -3.467372           -0.808547
 H            1.969307           -2.686755            1.929700
 H            2.309853           -0.036937            2.568855
 H            2.482407            2.381142            2.974302
 H            1.499033            3.307054           -1.835538
 H            1.417153            0.885448           -2.305936
 H            1.535643            5.735300           -1.396827
 H            2.309081            9.685401            2.270379
 H            2.656799            7.516739            3.757128
 H            2.598065            4.790749            3.440106
 H           -0.720627           -2.096991            1.865276
 H           -0.955372            0.627401            1.726268
 H           -1.119485            3.054156            1.368281
 H           -3.721223            4.734589           -3.285519

