86

 C            0.766856            5.861174            2.927973
 C            0.744008            5.181943            1.768092
 C            0.980924            3.741951            1.912856
 C            1.025044            2.788163            0.937575
 C            1.297001            1.412201            1.282307
 C            1.519209            1.066689            2.658754
 C            1.822178           -0.258131            3.002842
 C            1.936392           -1.252211            2.023040
 C            2.279069           -2.608889            2.390412
 C            2.401786           -3.534478            1.409787
 S            2.793127           -5.242078            1.570609
 C            2.695337           -5.521342           -0.176005
 C            2.393670           -4.397515           -0.847852
 C            2.208792           -3.219247            0.005937
 C            1.880797           -1.947768           -0.363693
 C            1.722178           -0.921249            0.640401
 C            1.370514            0.400181            0.296237
 C            1.181079            0.796038           -1.125438
 C            2.333690            1.176130           -1.823548
 C            3.667842            1.040343           -1.260457
 C            4.771535            1.414487           -1.956588
 C            4.653613            1.966717           -3.285397
 C            3.432059            2.127936           -3.853832
 C            2.224201            1.749592           -3.141855
 C            0.969796            1.958673           -3.685495
 C           -0.205268            1.558881           -2.996995
 C           -1.468223            1.824561           -3.587439
 C           -2.642840            1.428842           -2.973647
 C           -3.939730            1.722980           -3.557134
 C           -5.081604            1.280554           -2.972524
 C           -5.024019            0.505866           -1.755564
 C           -3.832425            0.216773           -1.173055
 C           -2.576873            0.676055           -1.745828
 C           -1.336152            0.391663           -1.162433
 C           -1.348722           -0.549019           -0.009704
 C           -1.226364           -1.932413           -0.279886
 C           -1.071149           -2.430855           -1.626481
 C           -0.977028           -3.773674           -1.852338
 C           -0.839808           -4.473877           -3.133491
 C           -0.778100           -5.812345           -3.023582
 S           -0.874463           -6.343884           -1.338605
 C           -1.016936           -4.696827           -0.734327
 C           -1.155129           -4.283696            0.548304
 C           -1.279463           -2.866721            0.809935
 C           -1.468200           -2.399003            2.117967
 C           -1.631745           -1.033309            2.381615
 C           -1.587041           -0.086216            1.300846
 C           -1.796693            1.315275            1.581750
 C           -2.012440            1.729851            2.863361
 C           -2.225147            3.094872            3.356222
 C           -2.390400            3.179551            4.686915
 S           -2.311676            1.590309            5.465726
 C           -2.034119            0.757594            3.941148
 C           -1.856959           -0.568582            3.733030
 C           -0.117542            0.895713           -1.723568
 C            1.445109            2.090712            3.677436
 C            1.191922            3.366101            3.297768
 S            1.074529            4.800783            4.310769
 H            0.630812            6.916648            3.097077
 H            0.578249            5.612225            0.787912
 H            0.868429            3.047111           -0.110574
 H            1.978185           -0.516465            4.050707
 H            2.428808           -2.843758            3.442607
 H            2.864739           -6.514623           -0.557886
 H            2.271051           -4.317926           -1.921621
 H            1.724461           -1.683137           -1.410350
 H            3.760876            0.621387           -0.255829
 H            5.770150            1.308611           -1.534349
 H            5.568297            2.245741           -3.806518
 H            3.318885            2.542848           -4.854298
 H            0.867636            2.438921           -4.658887
 H           -1.498867            2.348831           -4.542825
 H           -3.958823            2.307687           -4.475610
 H           -6.061403            1.492379           -3.398102
 H           -5.963501            0.163387           -1.323384
 H           -3.792626           -0.368712           -0.251641
 H           -1.042820           -1.718026           -2.451854
 H           -0.804420           -3.914783           -4.060557
 H           -0.686428           -6.551909           -3.801831
 H           -1.176449           -4.975403            1.389517
 H           -1.495105           -3.112239            2.942393
 H           -1.769674            2.023672            0.752669
 H           -2.225292            3.930183            2.665847
 H           -2.546958            4.054328            5.296419
 H           -1.878516           -1.298609            4.540041
 H            1.594607            1.805807            4.718076

