80

 C           -2.847398            0.811070           -3.299098
 C           -3.195003           -0.356548           -2.712999
 C           -2.772624           -0.672914           -1.351948
 C           -3.155823           -1.833172           -0.737657
 C           -2.756580           -2.145959            0.616052
 C           -3.166721           -3.310769            1.238752
 C           -2.753735           -3.595240            2.568637
 C           -3.064903           -4.702067            3.353788
 S           -2.306139           -4.568896            4.862793
 C           -1.562072           -3.079947            4.550784
 C           -1.884593           -2.650246            3.266128
 C           -1.482453           -1.456039            2.608493
 C           -1.906621           -1.194464            1.318375
 C           -1.525830            0.022898            0.636456
 C           -1.932747            0.292824           -0.640549
 C           -1.580822            1.535418           -1.338954
 C           -0.817345            2.586845           -0.615152
 C           -1.579384            3.466862            0.163815
 C           -3.015279            3.311747            0.339975
 C           -3.737057            4.184350            1.088861
 C           -3.097066            5.303226            1.739257
 C           -1.759862            5.494772            1.610802
 C           -0.949723            4.585338            0.819244
 C            0.410915            4.778513            0.665621
 C            1.198398            3.884073           -0.105365
 C            2.587487            4.145174           -0.236141
 C            3.409314            3.303622           -0.962969
 C            4.827730            3.576314           -1.117083
 C            5.627358            2.729427           -1.813196
 C            5.077268            1.535550           -2.410173
 C            3.755653            1.247660           -2.293914
 C            2.846462            2.125566           -1.573076
 C            1.476720            1.858007           -1.456823
 C            1.003620            0.601343           -2.094994
 C            0.602976            0.592701           -3.391979
 C            0.191573           -0.637532           -4.038891
 C            0.222413           -1.813706           -3.373565
 C            0.681265           -1.885828           -1.989755
 C            0.748071           -3.077148           -1.322149
 C            1.227009           -3.161182            0.039367
 C            1.305138           -4.372472            0.701413
 C            1.783297           -4.427362            2.038975
 C            1.934055           -5.543376            2.857320
 S            2.537326           -5.071154            4.368399
 C            2.625029           -3.417571            4.009191
 C            2.187402           -3.192267            2.707006
 C            2.102180           -1.959431            2.003921
 C            1.637054           -1.930538            0.702094
 C            1.545664           -0.689559           -0.035862
 C            1.088971           -0.646797           -1.323646
 C            0.601182            2.741330           -0.744861
 C           -2.037758            1.784267           -2.593843
 H           -3.161354            1.059603           -4.311540
 H           -3.801304           -1.097507           -3.231503
 H           -3.778664           -2.560664           -1.256607
 H           -3.806208           -4.026347            0.727229
 H           -3.687779           -5.531735            3.074394
 H           -0.931556           -2.571631            5.258065
 H           -0.834332           -0.760689            3.139576
 H           -0.893608            0.726280            1.183277
 H           -3.503106            2.463273           -0.145403
 H           -4.811544            4.064255            1.219850
 H           -3.717468            5.977341            2.327970
 H           -1.255226            6.331484            2.091397
 H            0.899597            5.630687            1.138045
 H            3.000829            5.029372            0.249163
 H            5.219933            4.481914           -0.656899
 H            6.691816            2.921830           -1.938783
 H            5.754781            0.877251           -2.952013
 H            3.344452            0.340060           -2.741568
 H            0.563906            1.509450           -3.979606
 H           -0.145468           -0.572076           -5.072043
 H           -0.090350           -2.744685           -3.844019
 H            0.438536           -4.005125           -1.802236
 H            1.001663           -5.298484            0.217349
 H            1.707550           -6.562265            2.599954
 H            2.974856           -2.678300            4.706216
 H            2.411548           -1.047520            2.510744
 H            1.860171            0.221195            0.478127
 H           -1.805562            2.716219           -3.107716

