80

 C           -0.668760            6.436663           -1.951987
 C           -1.107379            5.797625           -0.844085
 C           -1.197457            4.340713           -0.796719
 C           -1.642347            3.679650            0.313638
 C           -1.731618            2.236188            0.353183
 C           -2.192314            1.578440            1.477835
 C           -2.269394            0.158205            1.497161
 C           -2.737421           -0.662846            2.516952
 S           -2.627291           -2.289889            2.053249
 C           -1.940801           -1.975513            0.518838
 C           -1.679480           -3.044719           -0.436999
 C           -2.760428           -3.441849           -1.239679
 C           -4.083134           -2.847919           -1.125480
 C           -5.121536           -3.272468           -1.890703
 C           -4.943768           -4.331423           -2.855091
 C           -3.724390           -4.901884           -3.024162
 C           -2.582609           -4.463064           -2.240940
 C           -1.321119           -4.986208           -2.456710
 C           -0.207736           -4.557658           -1.688391
 C            1.076369           -5.062699           -2.019662
 C            2.202421           -4.667704           -1.320610
 C            3.526489           -5.132541           -1.694490
 C            4.622095           -4.751683           -0.989957
 C            4.484140           -3.877540            0.150079
 C            3.262852           -3.424897            0.534350
 C            2.053962           -3.793199           -0.185067
 C            0.780263           -3.337912            0.193278
 C            0.708862           -2.636925            1.469472
 C            0.964860           -1.305906            1.789222
 C            1.247825           -0.227274            0.905354
 C            1.481492            1.038762            1.403851
 C            1.732924            2.156173            0.519673
 C            1.982639            3.409521            1.001938
 C            2.215837            4.544380            0.113023
 C            2.493167            5.772601            0.605117
 C            2.564235            5.998166            2.038572
 C            2.334711            4.991875            2.912246
 C            2.016497            3.643904            2.447363
 C            1.756239            2.618709            3.312926
 C            1.465656            1.280750            2.842098
 C            1.190234            0.249856            3.718755
 C            0.938374           -1.064273            3.229547
 C            0.682511           -2.218996            3.957078
 S            0.493069           -3.544516            2.910072
 C           -0.376679           -3.624120           -0.606816
 C           -1.827334           -0.597111            0.328632
 C           -1.371672            0.101935           -0.823145
 C           -1.322817            1.483619           -0.826201
 C           -0.861148            2.220140           -1.982687
 C           -0.795354            3.585722           -1.984862
 C           -0.330668            4.336791           -3.147964
 C           -0.271805            5.687853           -3.131889
 H           -0.600728            7.521965           -1.998353
 H           -1.406278            6.343740            0.050337
 H           -1.938484            4.225180            1.209977
 H           -2.496805            2.128498            2.366365
 H           -3.112584           -0.348266            3.474558
 H           -4.222881           -2.034511           -0.410746
 H           -6.110431           -2.825437           -1.800563
 H           -5.808883           -4.646449           -3.436258
 H           -3.562409           -5.699146           -3.747753
 H           -1.163536           -5.733790           -3.234292
 H            1.164478           -5.765505           -2.848356
 H            3.604592           -5.789756           -2.559023
 H            5.622093           -5.086161           -1.261295
 H            5.387491           -3.591543            0.687027
 H            3.168553           -2.753719            1.391052
 H            1.260380           -0.426977           -0.166582
 H            1.696398            1.964647           -0.554059
 H            2.145875            4.358515           -0.959370
 H            2.667744            6.624318           -0.049194
 H            2.807364            7.004490            2.375810
 H            2.383314            5.148539            3.988597
 H            1.765883            2.778604            4.390103
 H            1.164122            0.416722            4.793060
 H            0.611373           -2.303907            5.026276
 H           -1.069352           -0.478461           -1.694071
 H           -0.569447            1.643779           -2.860255
 H           -0.039255            3.763091           -4.026732
 H            0.070051            6.255934           -3.995469

