80

 C           -1.436705            3.912747            4.142591
 C           -1.237355            4.217105            2.840094
 C           -1.251220            3.180723            1.811398
 C           -1.056179            3.467449            0.489147
 C           -1.099597            2.438465           -0.526897
 C           -0.961672            2.758133           -1.865104
 C           -1.075778            1.748290           -2.857002
 C           -1.050784            1.895196           -4.241340
 S           -1.296736            0.392956           -4.984171
 C           -1.432249           -0.488377           -3.544783
 C           -1.289988            0.362361           -2.451744
 C           -1.368596            0.042911           -1.061295
 C           -1.641296           -1.359309           -0.654649
 C           -2.986754           -1.747542           -0.634096
 C           -4.058094           -0.876097           -1.090913
 C           -5.355544           -1.275340           -1.069368
 C           -5.714660           -2.585240           -0.580941
 C           -4.757004           -3.433565           -0.128377
 C           -3.357358           -3.045326           -0.127996
 C           -2.375752           -3.880268            0.374162
 C           -1.007780           -3.502275            0.352749
 C           -0.047387           -4.382444            0.915670
 C            1.301332           -4.075552            0.899866
 C            2.287154           -4.956815            1.500705
 C            3.611326           -4.666176            1.437465
 C            4.062890           -3.469672            0.768448
 C            3.173076           -2.616982            0.198896
 C            1.741235           -2.868715            0.246021
 C            0.804678           -1.999732           -0.328986
 C            1.360003           -0.879715           -1.131440
 C            1.776551            0.321191           -0.572211
 C            1.634360            0.592862            0.841520
 C            2.065904            1.763615            1.399401
 C            1.916807            2.041306            2.825283
 C            2.355875            3.202065            3.362243
 C            2.993297            4.209611            2.532008
 C            3.149459            4.015404            1.202849
 C            2.688629            2.787757            0.559849
 C            2.825050            2.576429           -0.783270
 C            2.391732            1.345049           -1.408275
 C            2.582695            1.131460           -2.759688
 C            2.214659           -0.109286           -3.348161
 C            2.399442           -0.527528           -4.661555
 S            1.847868           -2.122103           -4.843421
 C            1.338966           -2.305156           -3.236178
 C            1.593769           -1.139514           -2.521131
 C           -0.602512           -2.250029           -0.228337
 C           -1.318779            1.059779           -0.111575
 C           -1.500968            0.796771            1.298918
 C           -1.484612            1.798820            2.229425
 C           -1.690425            1.537041            3.650905
 C           -1.668755            2.540202            4.557865
 H           -1.432336            4.678094            4.916493
 H           -1.060673            5.240823            2.512424
 H           -0.865901            4.489001            0.160560
 H           -0.778153            3.782740           -2.181854
 H           -0.903420            2.809036           -4.786421
 H           -1.597262           -1.552531           -3.506595
 H           -3.789757            0.117735           -1.457167
 H           -6.155109           -0.622524           -1.415596
 H           -6.767795           -2.861831           -0.585782
 H           -5.005622           -4.424285            0.247656
 H           -2.642922           -4.847320            0.799241
 H           -0.392830           -5.313354            1.364408
 H            1.924545           -5.853453            2.000036
 H            4.361767           -5.317718            1.882385
 H            5.133693           -3.274754            0.737349
 H            3.518958           -1.711947           -0.306167
 H            1.157383           -0.175168            1.454733
 H            1.426989            1.279292            3.431945
 H            2.243711            3.420098            4.422476
 H            3.336286            5.119534            3.021606
 H            3.625526            4.761001            0.568211
 H            3.275477            3.332035           -1.425689
 H            3.026491            1.896646           -3.393017
 H            2.828167            0.044717           -5.463539
 H            0.897038           -3.208661           -2.849641
 H           -1.664987           -0.239374            1.602438
 H           -1.866834            0.503150            3.945806
 H           -1.825150            2.355681            5.619129

