110

 C           -1.125374           -6.541102            2.045145
 C           -1.232530           -5.734062            3.246337
 C           -0.816220           -4.446233            3.254121
 C           -0.246174           -3.831644            2.060546
 C            0.163581           -2.522817            2.044921
 C            0.732981           -1.920872            0.865997
 C            0.879553           -2.741155           -0.315185
 C            0.425350           -4.107942           -0.276402
 C           -0.121287           -4.648390            0.858805
 C           -0.596049           -6.026761            0.910655
 C            1.456530           -2.206396           -1.461805
 C            1.919534           -0.868914           -1.495574
 C            2.534695           -0.335499           -2.657128
 C            2.998249            0.974335           -2.692262
 C            3.616350            1.532829           -3.867690
 C            4.048927            2.833699           -3.895567
 C            4.670114            3.416023           -5.080283
 C            5.073956            4.707610           -5.095213
 C            4.900218            5.554754           -3.929813
 C            4.337946            5.066706           -2.799752
 C            3.888231            3.681710           -2.718199
 C            3.318166            3.171583           -1.580312
 C            2.853892            1.809290           -1.520325
 C            2.258103            1.291939           -0.375238
 C            1.772741           -0.039890           -0.329014
 C            1.152925           -0.583320            0.833743
 C            1.038688            0.222375            2.078676
 C            2.159149            0.246119            2.917843
 C            3.438010           -0.326964            2.530064
 C            4.513612           -0.284260            3.357475
 C            4.417901            0.331926            4.659462
 C            3.243095            0.865339            5.079898
 C            2.063727            0.829629            4.233130
 C            0.842141            1.305327            4.675139
 C           -0.297328            1.299906            3.829164
 C           -1.540392            1.755152            4.341233
 C           -2.666687            1.811408            3.540177
 C           -3.950226            2.242932            4.065463
 C           -5.030322            2.361150            3.252595
 C           -4.919493            2.059126            1.845253
 C           -3.741415            1.639725            1.316879
 C           -2.555370            1.475451            2.142139
 C           -1.331994            1.036874            1.621985
 C           -1.237690            0.917906            0.142504
 C           -1.715502           -0.247181           -0.524831
 C           -2.252729           -1.355592            0.178550
 C           -2.704225           -2.489686           -0.487421
 C           -3.218765           -3.630267            0.226465
 C           -3.642972           -4.753970           -0.434666
 C           -4.140295           -5.925231            0.278176
 C           -4.555452           -7.026801           -0.389129
 C           -4.520135           -7.070691           -1.839206
 C           -4.063988           -6.016023           -2.554157
 C           -3.593760           -4.803484           -1.892867
 C           -3.110791           -3.732189           -2.599249
 C           -2.641751           -2.544913           -1.931228
 C           -2.128280           -1.460934           -2.633166
 C           -1.658341           -0.303265           -1.961235
 C           -1.141772            0.800701           -2.681254
 C           -0.704160            1.947278           -2.027241
 C           -0.191682            3.075726           -2.761947
 C            0.219489            4.217676           -2.124129
 C            0.754747            5.362803           -2.852199
 C            1.147590            6.482810           -2.201620
 C            1.041930            6.577753           -0.757526
 C            0.561404            5.542901           -0.029518
 C            0.133638            4.304937           -0.670912
 C           -0.335003            3.238243            0.052810
 C           -0.763181            2.019137           -0.584723
 C           -0.193944            0.839600            2.470877
 H           -1.484711           -7.567481            2.093075
 H           -1.654853           -6.203847            4.132876
 H           -0.888145           -3.827735            4.148302
 H            0.069298           -1.906152            2.941496
 H            0.522955           -4.700683           -1.185753
 H           -0.515168           -6.617878           -0.001261
 H            1.560015           -2.820921           -2.355385
 H            2.639362           -0.973596           -3.533357
 H            3.727955            0.887767           -4.737942
 H            4.794748            2.769154           -5.947416
 H            5.538697            5.150668           -5.974504
 H            5.237354            6.586876           -4.002205
 H            4.194045            5.689189           -1.916582
 H            3.183161            3.794003           -0.694220
 H            2.145028            1.923858            0.509149
 H            3.513640           -0.793037            1.544919
 H            5.471487           -0.710953            3.063687
 H            5.310289            0.350460            5.283403
 H            3.147474            1.332830            6.058553
 H            0.738847            1.692916            5.688311
 H           -1.593815            2.064099            5.384835
 H           -4.010313            2.467422            5.129132
 H           -5.998734            2.684532            3.631519
 H           -5.807527            2.178395            1.226277
 H           -3.660678            1.410756            0.251730
 H           -2.296122           -1.314886            1.269711
 H           -3.241402           -3.579688            1.316248
 H           -4.154541           -5.875816            1.366971
 H           -4.926022           -7.906891            0.132679
 H           -4.873096           -7.979514           -2.323714
 H           -4.032479           -6.035100           -3.642515
 H           -3.066986           -3.753543           -3.687168
 H           -2.078841           -1.490532           -3.720656
 H           -1.090651            0.741959           -3.767912
 H           -0.132306            2.990027           -3.846809
 H            0.833878            5.273925           -3.935473
 H            1.551751            7.340921           -2.735667
 H            1.359433            7.507707           -0.289004
 H            0.473812            5.599255            1.055125
 H           -0.398226            3.297597            1.141605

