110

 C            2.666691            8.701657           -2.170816
 C            2.594360            7.957972           -1.042713
 C            2.437738            6.508902           -1.102881
 C            2.358867            5.740677            0.030057
 C            2.211483            4.309617           -0.042499
 C            2.130842            3.524641            1.102862
 C            1.995527            2.115988            1.020239
 C            1.918145            1.306993            2.181608
 C            1.788533           -0.074790            2.089112
 C            1.719951           -0.911231            3.258974
 C            1.581739           -2.272161            3.160052
 C            1.537426           -3.120489            4.345157
 C            1.414463           -4.463526            4.238397
 C            1.311302           -5.097856            2.940742
 C            1.320849           -4.360711            1.799518
 C            1.272539           -5.026654            0.471262
 C            2.511628           -5.355656           -0.092230
 C            3.772969           -5.070096            0.574563
 C            4.963333           -5.399538            0.011169
 C            5.015623           -6.047359           -1.277981
 C            3.870004           -6.335513           -1.945324
 C            2.575010           -5.996919           -1.381244
 C            1.400250           -6.269300           -2.057228
 C            0.137444           -5.936189           -1.501260
 C           -1.029701           -6.230401           -2.252920
 C           -2.289020           -5.928563           -1.768233
 C           -3.486205           -6.217037           -2.538300
 C           -4.715900           -5.915794           -2.050413
 C           -4.852578           -5.304351           -0.749793
 C           -3.758318           -5.020783            0.002278
 C           -2.414292           -5.317817           -0.469051
 C           -1.271479           -5.033865            0.289719
 C           -1.518883           -4.455607            1.637398
 C           -1.709526           -3.006467            1.762856
 C           -1.611336           -2.154100            0.693140
 C           -1.803726           -0.734464            0.839665
 C           -1.693471            0.131739           -0.243348
 C           -1.880363            1.527791           -0.088264
 C           -1.765611            2.417640           -1.186205
 C           -1.958703            3.785523           -1.028267
 C           -1.843440            4.699456           -2.136081
 C           -2.045461            6.045836           -1.974858
 C           -1.929082            6.982673           -3.087103
 C           -2.141951            8.307383           -2.911403
 C           -2.493036            8.835272           -1.605941
 C           -2.608734            8.014905           -0.535849
 C           -2.388551            6.578048           -0.659206
 C           -2.496702            5.732838            0.414915
 C           -2.285313            4.314196            0.278408
 C           -2.390878            3.450459            1.363203
 C           -2.193325            2.054130            1.213705
 C           -2.299021            1.163876            2.311343
 C           -2.111897           -0.205457            2.149306
 C           -2.219050           -1.124514            3.252230
 C           -2.030962           -2.472916            3.083270
 C           -2.155904           -3.404736            4.197793
 C           -1.987446           -4.735268            4.018097
 C           -1.673015           -5.274044            2.711449
 C            0.043068           -5.313757           -0.206747
 C            1.488005           -2.903254            1.846542
 C            1.570686           -2.131921            0.715867
 C            1.724794           -0.701347            0.787538
 C            1.803684            0.083578           -0.358053
 C            1.939088            1.492355           -0.275078
 C            2.018369            2.301501           -1.436425
 C            2.150952            3.683153           -1.345030
 C            2.231313            4.517017           -2.517072
 C            2.367114            5.877954           -2.417498
 C            2.445913            6.734790           -3.595610
 C            2.587991            8.075512           -3.477623
 H            2.784342            9.783325           -2.136567
 H            2.649638            8.413303           -0.054660
 H            2.404933            6.196666            1.018607
 H            2.168931            3.991638            2.086522
 H            1.958640            1.785948            3.159226
 H            1.781862           -0.426393            4.232493
 H            1.608479           -2.628719            5.314267
 H            1.384036           -5.107616            5.115758
 H            1.211705           -6.182515            2.913014
 H            3.738326           -4.575374            1.547869
 H            5.906073           -5.184594            0.512265
 H            5.993925           -6.290672           -1.689436
 H            3.884184           -6.825119           -2.917862
 H            1.430140           -6.748108           -3.036058
 H           -0.917644           -6.703209           -3.228716
 H           -3.358158           -6.680204           -3.515494
 H           -5.622512           -6.121651           -2.617184
 H           -5.857384           -5.078921           -0.395459
 H           -3.866999           -4.553924            0.983934
 H           -1.376091           -2.533521           -0.303517
 H           -1.454588           -0.260254           -1.231665
 H           -1.518251            2.011404           -2.166404
 H           -1.586145            4.285453           -3.110460
 H           -1.661419            6.571761           -4.059656
 H           -2.056214            9.014694           -3.734230
 H           -2.656795            9.908367           -1.524333
 H           -2.869986            8.396811            0.449897
 H           -2.748183            6.115155            1.403317
 H           -2.629749            3.843567            2.350402
 H           -2.529932            1.568660            3.295595
 H           -2.456018           -0.713523            4.232553
 H           -2.390429           -2.985647            5.175159
 H           -2.081567           -5.440517            4.842370
 H           -1.556847           -6.353530            2.622252
 H            1.515489           -2.585929           -0.275541
 H            1.759659           -0.383025           -1.341389
 H            1.974812            1.821913           -2.413201
 H            2.181640            4.030325           -3.490056
 H            2.385746            6.251241           -4.569424
 H            2.647137            8.723507           -4.350376

