86

 C           -2.266525           -3.208831            4.806357
 C           -2.174520           -1.801174            5.119163
 C           -1.977980           -0.885560            4.136049
 C           -1.860151           -1.294981            2.747776
 C           -1.663235           -0.375014            1.728690
 C           -1.559627           -0.783668            0.371477
 C           -1.660253           -2.179604            0.064562
 C           -1.850618           -3.115907            1.116240
 C           -1.954215           -2.701459            2.435151
 C           -2.159803           -3.640764            3.523659
 C           -1.583716           -2.605220           -1.288355
 C           -1.450767           -1.689503           -2.318755
 C           -1.406023           -2.116049           -3.707045
 C           -1.320615           -1.210022           -4.713642
 C           -1.265258            0.203948           -4.423465
 C           -1.283911            0.648632           -3.141160
 C           -1.367617           -0.277034           -2.024362
 C           -1.381207            0.152489           -0.698796
 C           -1.332809            1.597403           -0.349377
 C           -2.557893            2.275988           -0.332537
 C           -3.798816            1.658916           -0.772977
 C           -4.974997            2.336633           -0.750273
 C           -5.030964            3.700866           -0.281617
 C           -3.905232            4.321685            0.152653
 C           -2.628048            3.630466            0.156036
 C           -1.484438            4.231873            0.649121
 C           -0.234510            3.560420            0.625694
 C            0.899582            4.210381            1.178401
 C            2.147152            3.614250            1.154495
 C            3.306458            4.261036            1.743572
 C            4.534025            3.687374            1.672497
 C            4.707298            2.419870            1.003762
 C            3.648662            1.781127            0.443074
 C            2.306929            2.339296            0.500993
 C            1.199315            1.696672           -0.066396
 C            1.487337            0.486110           -0.881827
 C            1.722082            0.635857           -2.250954
 C            1.652908            1.924658           -2.918986
 C            1.890585            2.042636           -4.250670
 C            2.208106            0.881054           -5.047153
 C            2.286652           -0.345806           -4.472030
 C            2.062147           -0.519892           -3.047178
 C            2.182364           -1.763376           -2.447456
 C            1.990593           -1.923043           -1.050397
 C            2.158670           -3.190629           -0.429492
 C            1.989305           -3.346875            0.936655
 C            2.163185           -4.631832            1.591273
 C            1.980879           -4.761746            2.930161
 C            1.604644           -3.623524            3.737168
 C            1.437456           -2.400750            3.171839
 C            1.629933           -2.204971            1.745545
 C            1.468913           -0.963687            1.149878
 C            1.639378           -0.786950           -0.250450
 C           -0.119256            2.245740            0.052667
 H           -2.425248           -3.903341            5.629375
 H           -2.270346           -1.504841            6.162135
 H           -1.908921            0.179101            4.356394
 H           -1.593015            0.688594            1.966151
 H           -1.914916           -4.174695            0.867628
 H           -2.223888           -4.698449            3.272493
 H           -1.637476           -3.671648           -1.504568
 H           -1.444769           -3.185698           -3.905889
 H           -1.289085           -1.517714           -5.757135
 H           -1.198005            0.894830           -5.261967
 H           -1.230287            1.714149           -2.910880
 H           -3.759413            0.626898           -1.128969
 H           -5.902304            1.872704           -1.082120
 H           -5.996040            4.205071           -0.287736
 H           -3.923059            5.349404            0.511268
 H           -1.529992            5.237431            1.067219
 H            0.771231            5.196197            1.625323
 H            3.151815            5.217326            2.240336
 H            5.412270            4.159787            2.109867
 H            5.709565            1.996287            0.964370
 H            3.783865            0.822571           -0.063308
 H            1.408682            2.798797           -2.312616
 H            1.848029            3.008236           -4.751166
 H            2.380867            1.023749           -6.112246
 H            2.519805           -1.234309           -5.056707
 H            2.433042           -2.638733           -3.045274
 H            2.427838           -4.043635           -1.050386
 H            2.444831           -5.480378            0.970726
 H            2.109981           -5.719437            3.431532
 H            1.456635           -3.781914            4.803501
 H            1.141951           -1.535432            3.765353
 H            1.195202           -0.098320            1.757839

