86

 C           -2.477287           -5.767075            2.726712
 C           -2.810217           -4.613882            3.531700
 C           -2.662271           -3.358919            3.035989
 C           -2.165902           -3.141876            1.688317
 C           -2.018656           -1.868883            1.159563
 C           -1.526124           -1.675532           -0.159143
 C           -1.382310           -0.376469           -0.716104
 C           -0.903758           -0.194755           -2.004806
 C           -0.539163           -1.348264           -2.795841
 C           -0.670301           -2.621176           -2.261306
 C           -1.168545           -2.817940           -0.946277
 C           -1.329274           -4.118309           -0.396286
 C           -1.820387           -4.294907            0.887923
 C           -2.003729           -5.616041            1.463579
 C           -0.056310           -1.145978           -4.149927
 C            0.034268            0.101239           -4.677230
 C           -0.341867            1.257186           -3.901831
 C           -0.770766            1.125707           -2.614287
 C           -1.226407            2.324843           -1.862217
 C           -2.589461            2.628780           -1.970499
 C           -3.516050            1.800441           -2.726614
 C           -4.830872            2.121475           -2.832110
 C           -5.356187            3.302529           -2.189189
 C           -4.538377            4.107329           -1.464808
 C           -3.125213            3.801504           -1.326899
 C           -2.279030            4.616611           -0.597853
 C           -0.898630            4.313932           -0.468367
 C           -0.084321            5.193852            0.291314
 C            1.266510            4.952544            0.459759
 C            2.106759            5.854288            1.228348
 C            3.430429            5.603159            1.389222
 C            4.024093            4.426165            0.800538
 C            3.273234            3.559213            0.074337
 C            1.851927            3.781705           -0.142843
 C            1.062974            2.910405           -0.904269
 C            1.773817            1.747404           -1.498340
 C            2.342485            1.853501           -2.732723
 C            3.095425            0.760542           -3.296364
 C            3.276373           -0.388923           -2.598155
 C            2.723506           -0.544334           -1.264849
 C            2.932466           -1.701442           -0.529693
 C            2.414377           -1.839894            0.785129
 C            2.639272           -3.012680            1.555175
 C            2.131382           -3.131970            2.839464
 C            2.358898           -4.318600            3.645911
 C            1.846679           -4.419301            4.898910
 C            1.059949           -3.345415            5.461459
 C            0.824253           -2.214194            4.749131
 C            1.353409           -2.053450            3.406049
 C            1.131960           -0.902718            2.665328
 C            1.653535           -0.765763            1.350775
 C            1.440317            0.411686            0.584752
 C            1.955803            0.540397           -0.696000
 C           -0.337052            3.146951           -1.096801
 H           -2.618364           -6.752376            3.167724
 H           -3.178973           -4.787647            4.540815
 H           -2.907575           -2.480401            3.630826
 H           -2.278900           -0.993569            1.753840
 H           -1.657625            0.486462           -0.106689
 H           -0.390600           -3.493154           -2.850607
 H           -1.059631           -4.980239           -1.004744
 H           -1.747744           -6.475655            0.846245
 H            0.225482           -2.028179           -4.722446
 H            0.390029            0.265624           -5.692865
 H           -0.265163            2.236638           -4.372679
 H           -3.124571            0.902121           -3.209573
 H           -5.521537            1.499508           -3.399368
 H           -6.416976            3.519407           -2.304353
 H           -4.911658            5.002336           -0.969419
 H           -2.665419            5.512091           -0.110819
 H           -0.544927            6.072877            0.742468
 H            1.635745            6.733872            1.664499
 H            4.074237            6.270772            1.959714
 H            5.087981            4.257467            0.959930
 H            3.725275            2.666316           -0.363601
 H            2.233458            2.760120           -3.327025
 H            3.508055            0.890973           -4.295313
 H            3.839552           -1.224009           -3.011721
 H            3.501987           -2.525542           -0.956981
 H            3.221069           -3.822376            1.116934
 H            2.951798           -5.120291            3.208248
 H            2.010491           -5.304296            5.511343
 H            0.666458           -3.477014            6.467658
 H            0.233646           -1.396846            5.159930
 H            0.550401           -0.082562            3.084775
 H            0.858267            1.223075            1.025803

