86

 C           -2.019002            7.835186            1.256323
 C           -1.850854            8.011051           -0.167893
 C           -1.736353            6.936110           -0.989344
 C           -1.774775            5.584716           -0.459195
 C           -1.645381            4.473495           -1.279329
 C           -1.681590            3.159135           -0.743338
 C           -1.540628            2.012028           -1.571556
 C           -1.578225            0.734655           -1.035947
 C           -1.431246           -0.446129           -1.866802
 C           -1.456975           -1.692826           -1.320198
 C           -1.386938           -2.913079           -2.164482
 C           -2.607017           -3.399597           -2.647773
 C           -3.878483           -2.759935           -2.346640
 C           -5.049582           -3.245984           -2.831699
 C           -5.071138           -4.423908           -3.666276
 C           -3.914908           -5.062126           -3.976538
 C           -2.639460           -4.576839           -3.478985
 C           -1.454974           -5.220318           -3.786983
 C           -0.211385           -4.742319           -3.297856
 C            0.970361           -5.448178           -3.643424
 C            2.210349           -5.027562           -3.199104
 C            3.422667           -5.746809           -3.549149
 C            4.634296           -5.324160           -3.108675
 C            4.735829           -4.145721           -2.280600
 C            3.626768           -3.445243           -1.930629
 C            2.300976           -3.851699           -2.370087
 C            1.142978           -3.149718           -2.016534
 C            1.336326           -1.953689           -1.156930
 C            1.359634           -2.048826            0.200955
 C            1.610265           -0.880716            1.025130
 C            1.608158           -0.951313            2.408840
 C            1.839238            0.205683            3.202627
 C            1.829550            0.149164            4.621226
 C            2.042304            1.288034            5.384335
 C            2.027197            1.250493            6.835875
 C            2.223047            2.379248            7.564696
 C            2.457411            3.646350            6.911283
 C            2.490437            3.730052            5.556486
 C            2.282498            2.553786            4.731183
 C            2.303256            2.618844            3.345542
 C            2.081078            1.460913            2.554929
 C            2.086795            1.518948            1.133875
 C            1.858629            0.385336            0.372104
 C            1.850232            0.428044           -1.080509
 C            1.598069           -0.684465           -1.812887
 C           -0.149989           -3.567794           -2.469120
 C           -1.657606           -1.868915            0.107542
 C           -1.805940           -0.792606            0.918347
 C           -1.767027            0.559328            0.386871
 C           -1.900309            1.668758            1.204991
 C           -1.861547            2.984850            0.667629
 C           -1.994684            4.129130            1.497476
 C           -1.950265            5.408787            0.963783
 C           -2.070898            6.591193            1.797847
 H           -2.102880            8.728685            1.872718
 H           -1.821402            9.028386           -0.554668
 H           -1.613134            7.053234           -2.065112
 H           -1.513681            4.598050           -2.353394
 H           -1.400815            2.154187           -2.642237
 H           -1.293592           -0.301134           -2.937751
 H           -3.867030           -1.869275           -1.714727
 H           -5.999951           -2.764221           -2.606998
 H           -6.034871           -4.776197           -4.030638
 H           -3.904940           -5.951910           -4.604071
 H           -1.462491           -6.111183           -4.415256
 H            0.885051           -6.335942           -4.270375
 H            3.319958           -6.632471           -4.174181
 H            5.551785           -5.852299           -3.363482
 H            5.727131           -3.841171           -1.948406
 H            3.708095           -2.553891           -1.304877
 H            1.180945           -2.998304            0.704371
 H            1.425005           -1.900910            2.909600
 H            1.650105           -0.809366            5.106447
 H            1.853350            0.287691            7.314343
 H            2.210984            2.362962            8.653283
 H            2.606075            4.522811            7.539840
 H            2.670811            4.677179            5.049630
 H            2.488841            3.568062            2.842982
 H            2.265060            2.479477            0.650084
 H            2.044554            1.389243           -1.556040
 H            1.579579           -0.664375           -2.901839
 H           -1.679167           -2.887277            0.493595
 H           -1.950855           -0.906219            1.992529
 H           -2.029857            1.546064            2.280444
 H           -2.131478            3.985331            2.569197
 H           -2.202153            6.442439            2.868877

