90

 C            9.376536            1.136173           -4.613432
 C           10.111091            0.959641           -3.406981
 C            9.465269            0.599057           -2.250158
 C            8.050232            0.393438           -2.229373
 C            7.321331            0.569788           -3.433809
 C            8.017278            0.946428           -4.626796
 C            5.906314            0.371143           -3.448842
 C            5.230009            0.007405           -2.305973
 C            3.785283           -0.202584           -2.300336
 C            3.124671           -0.560080           -1.179462
 C            3.819536           -0.755131            0.088466
 C            5.236411           -0.558073            0.125217
 C            5.943582           -0.739344            1.340328
 C            5.235356           -1.114686            2.507193
 C            3.866266           -1.303259            2.463890
 C            3.148182           -1.126528            1.258444
 C            1.681029           -1.350328            1.282438
 C            1.163727           -2.618631            1.025518
 C            2.007939           -3.756660            0.704037
 C            1.474080           -4.980949            0.461966
 C            0.045105           -5.185956            0.515635
 C           -0.786825           -4.154397            0.807812
 C           -0.264273           -2.825735            1.076660
 C           -1.108021           -1.769152            1.378362
 C           -0.599633           -0.470365            1.644960
 C           -1.464199            0.623666            1.963071
 C           -2.927763            0.387075            2.034866
 C           -3.478501           -0.003127            3.277488
 C           -4.834753           -0.238519            3.408649
 C           -5.697492           -0.092883            2.295826
 C           -7.116651           -0.333011            2.400560
 C           -7.931889           -0.188274            1.321569
 C           -7.413627            0.209816            0.033863
 C           -6.035136            0.449195           -0.094831
 C           -5.482445            0.848466           -1.368814
 C           -6.309808            0.994401           -2.459608
 C           -7.714912            0.757204           -2.353078
 C           -8.568545            0.912052           -3.491760
 C           -9.918368            0.685307           -3.390199
 C          -10.485319            0.291297           -2.145435
 C           -9.686412            0.135640           -1.039530
 C           -8.276563            0.364433           -1.110732
 C           -4.044773            1.087125           -1.456033
 C           -3.235580            0.943168           -0.385960
 C           -3.754689            0.540792            0.916723
 C           -5.159077            0.298164            1.044194
 C           -0.946878            1.891570            2.222134
 C           -1.791074            3.028210            2.548379
 C           -1.256788            4.250967            2.797719
 C            0.172087            4.456477            2.743129
 C            1.003221            3.427563            2.439451
 C            0.480811            2.099750            2.166818
 C            1.324041            1.044571            1.858506
 C            0.816130           -0.254828            1.594610
 C            7.372160           -0.535561            1.353535
 C            8.037699           -0.176863            0.222908
 C            7.345791            0.014059           -1.030008
 C            5.954287           -0.176565           -1.069242
 H            9.911284            1.422477           -5.517600
 H           11.188522            1.115266           -3.419045
 H           10.026872            0.463177           -1.324543
 H            7.444916            1.078687           -5.543588
 H            5.373607            0.514197           -4.388531
 H            3.259675           -0.058364           -3.244769
 H            2.043165           -0.716750           -1.182500
 H            5.779177           -1.254533            3.440881
 H            3.320308           -1.593009            3.362863
 H            3.086281           -3.592507            0.661254
 H            2.102812           -5.836650            0.219702
 H           -0.336241           -6.185852            0.314249
 H           -1.867446           -4.287813            0.848980
 H           -2.188165           -1.929479            1.412574
 H           -2.813361           -0.115592            4.134923
 H           -5.249103           -0.538086            4.370714
 H           -7.515492           -0.633571            3.369014
 H           -9.005435           -0.371306            1.405513
 H           -5.907427            1.294327           -3.426802
 H           -8.123610            1.213243           -4.438868
 H          -10.572615            0.801599           -4.252635
 H          -11.558297            0.116540           -2.087437
 H          -10.119419           -0.166513           -0.084695
 H           -3.650194            1.388278           -2.426950
 H           -2.160257            1.124155           -0.458061
 H           -2.869904            2.865665            2.583436
 H           -1.885790            5.106007            3.041678
 H            0.553757            5.455058            2.950548
 H            2.083196            3.563365            2.389281
 H            2.403450            1.207403            1.813782
 H            7.901548           -0.677978            2.295250
 H            9.119128           -0.023891            0.237546

