62

 C           -5.427587            2.908913            0.399672
 C           -4.147621            2.713103            0.996013
 C           -3.398139            1.606935            0.684256
 C           -3.887751            0.632911           -0.243193
 C           -5.161650            0.830205           -0.838058
 C           -5.922766            1.993045           -0.493495
 C           -5.664726           -0.134308           -1.767714
 C           -4.923862           -1.244558           -2.084082
 C           -3.647083           -1.451984           -1.491422
 C           -3.135610           -0.541624           -0.592382
 C           -1.803197           -0.792933            0.012335
 C           -1.703097           -1.473151            1.224264
 C           -2.870037           -1.914025            1.968883
 C           -2.741607           -2.588262            3.139899
 C           -1.434845           -2.882032            3.680965
 C           -0.313559           -2.482215            3.029110
 C           -0.398153           -1.761968            1.770391
 C            0.740932           -1.363075            1.090166
 C            0.658609           -0.668442           -0.145455
 C            1.829829           -0.274286           -0.864695
 C            3.162858           -0.654099           -0.332770
 C            3.718846           -1.857782           -0.707152
 C            4.996960           -2.247432           -0.217968
 C            5.694476           -1.428956            0.633766
 C            5.143846           -0.173010            1.042821
 C            5.857396            0.694573            1.930794
 C            5.315609            1.894992            2.314823
 C            4.034609            2.293549            1.832822
 C            3.330417            1.482045            0.979680
 C            3.868664            0.223552            0.561089
 C            1.730048            0.424028           -2.066143
 C            2.897252            0.850169           -2.819029
 C            2.769047            1.516979           -3.994217
 C            1.462217            1.826317           -4.526407
 C            0.340602            1.460264           -3.855632
 C            0.424977            0.740503           -2.596535
 C           -0.714338            0.349975           -1.911938
 C           -0.632328           -0.364083           -0.687296
 H           -6.000463            3.795507            0.667170
 H           -3.780023            3.456273            1.701800
 H           -2.417986            1.448937            1.137592
 H           -6.899273            2.132015           -0.954452
 H           -6.643711            0.031468           -2.214370
 H           -5.297216           -1.985519           -2.789638
 H           -3.079502           -2.343392           -1.758821
 H           -3.852919           -1.680649            1.555413
 H           -3.613291           -2.921110            3.701402
 H           -1.383797           -3.428829            4.620864
 H            0.679993           -2.688833            3.425839
 H            1.727063           -1.582593            1.505646
 H            3.186234           -2.526337           -1.383512
 H            5.406400           -3.205415           -0.535700
 H            6.673951           -1.717979            1.011240
 H            6.835149            0.380406            2.292268
 H            5.851635            2.560117            2.990221
 H            3.629467            3.251778            2.154061
 H            2.349877            1.780522            0.604687
 H            3.879968            0.618542           -2.404090
 H            3.640683            1.838081           -4.562626
 H            1.411397            2.359246           -5.474303
 H           -0.652982            1.691500           -4.238374
 H           -1.700393            0.592726           -2.314285

