74

 C           -4.589618            2.124989            4.827283
 C           -3.517463            2.712484            4.068951
 C           -3.000292            2.066290            2.986838
 C           -3.514867            0.778478            2.579763
 C           -2.997089            0.093452            1.470959
 C           -3.504567           -1.157814            1.092136
 C           -4.571441           -1.742647            1.850481
 C           -5.092283           -1.055924            2.957029
 C           -4.582069            0.193764            3.335829
 C           -5.103780            0.913556            4.475624
 C           -5.089468           -3.033089            1.457044
 C           -4.574245           -3.689950            0.381000
 C           -3.507361           -3.111817           -0.385622
 C           -2.987553           -1.892240           -0.049340
 C           -1.885699           -1.312814           -0.858331
 C           -2.174216           -0.566576           -1.999112
 C           -3.534783           -0.289564           -2.427049
 C           -3.784729            0.427106           -3.552367
 C           -2.699106            0.938156           -4.356749
 C           -1.410262            0.715808           -3.994210
 C           -1.090734           -0.043271           -2.797361
 C            0.221953           -0.273119           -2.418631
 C            0.535113           -1.024064           -1.254654
 C            1.887402           -1.269560           -0.859982
 C            2.989424           -0.746180           -1.706099
 C            3.509817           -1.526668           -2.701320
 C            4.575383           -1.041216           -3.531453
 C            5.088389            0.206138           -3.342042
 C            4.569671            1.066758           -2.303354
 C            5.087894            2.353905           -2.098267
 C            4.578543            3.184245           -1.090004
 C            5.098329            4.514408           -0.866549
 C            4.586096            5.304371            0.117978
 C            3.517470            4.828821            0.955544
 C            3.001540            3.580644            0.777113
 C            3.514392            2.709944           -0.256282
 C            2.997929            1.422149           -0.460160
 C            3.504982            0.590926           -1.469471
 C            2.175863           -2.008411            0.285601
 C            3.536242           -2.267601            0.725256
 C            3.786319           -3.004179            1.837577
 C            2.700904           -3.550454            2.618739
 C            1.412081           -3.328759            2.255772
 C            1.092429           -2.545087            1.074926
 C           -0.220283           -2.312505            0.698086
 C           -0.533440           -1.554142           -0.461044
 H           -4.974071            2.675603            5.684549
 H           -3.136315            3.682149            4.385150
 H           -2.189765            2.500357            2.402519
 H           -2.185389            0.540986            0.892660
 H           -5.904745           -1.499326            3.531149
 H           -5.915942            0.457739            5.039899
 H           -5.900390           -3.460829            2.044861
 H           -4.955049           -4.663380            0.074459
 H           -3.122708           -3.667810           -1.240676
 H           -4.348718           -0.674907           -1.810281
 H           -4.802830            0.637688           -3.876776
 H           -2.950080            1.502835           -5.253158
 H           -0.578692            1.095965           -4.586859
 H            1.039628            0.127832           -3.022192
 H            3.126555           -2.530704           -2.883581
 H            4.956971           -1.699613           -4.310848
 H            5.897639            0.584772           -3.964817
 H            5.897481            2.714622           -2.731371
 H            5.907073            4.861526           -1.507849
 H            4.969307            6.308261            0.294777
 H            3.137918            5.493117            1.730234
 H            2.193325            3.207298            1.404920
 H            2.187698            1.059972            0.176904
 H            4.349625           -1.846469            0.131522
 H            4.804186           -3.200660            2.171510
 H            2.952022           -4.138594            3.499919
 H            0.580597           -3.730321            2.834206
 H           -1.038050           -2.717052            1.299093

