74

 C           -9.943706            2.121514            0.199460
 C           -9.333767            0.917871            0.011043
 C           -7.904406            0.837335           -0.186981
 C           -7.254279           -0.390011           -0.384534
 C           -5.866445           -0.445209           -0.575551
 C           -5.175464           -1.698412           -0.781556
 C           -3.827251           -1.733053           -0.964799
 C           -3.058151           -0.510983           -0.955201
 C           -1.590334           -0.596489           -1.153615
 C           -1.050237           -0.502109           -2.434444
 C           -1.875108           -0.336304           -3.618921
 C           -1.319374           -0.234875           -4.853152
 C            0.113965           -0.291558           -5.023206
 C            0.928024           -0.451421           -3.949163
 C            0.381963           -0.564483           -2.607488
 C            1.205812           -0.721252           -1.504690
 C            0.673117           -0.820793           -0.191990
 C            1.517816           -0.969090            0.952397
 C            2.988032           -1.000004            0.755602
 C            3.632480           -2.279768            0.577168
 C            4.976951           -2.350584            0.377649
 C            5.787737           -1.154016            0.339659
 C            7.172626           -1.206897            0.128084
 C            7.939228           -0.032570            0.088886
 C            9.367325           -0.063241           -0.130758
 C           10.090987            1.090608           -0.167810
 C            9.446707            2.363990            0.012082
 C            8.102832            2.435892            0.222901
 C            7.298308            1.236282            0.269082
 C            5.913575            1.289006            0.483319
 C            5.147490            0.115299            0.520699
 C            3.720265            0.153233            0.731943
 C            0.977454           -1.071034            2.232141
 C            1.803202           -1.226017            3.417650
 C            1.248324           -1.311774            4.653430
 C           -0.184956           -1.252296            4.823896
 C           -1.000137           -1.112303            3.748155
 C           -0.455399           -1.015986            2.404496
 C           -1.279746           -0.866295            1.301376
 C           -0.747035           -0.763484           -0.011303
 C           -3.674316            0.693294           -0.763755
 C           -5.102254            0.767157           -0.567542
 C           -5.751758            1.993969           -0.369830
 C           -7.139916            2.049308           -0.180202
 C           -7.826221            3.304776            0.023189
 C           -9.175757            3.337762            0.205357
 H          -11.019661            2.193997            0.349403
 H           -9.903693           -0.009893            0.004645
 H           -7.835884           -1.311485           -0.389914
 H           -5.768452           -2.612607           -0.785086
 H           -3.295007           -2.671265           -1.121479
 H           -2.957101           -0.295608           -3.481896
 H           -1.932371           -0.108523           -5.744265
 H            0.512093           -0.201876           -6.032747
 H            2.011197           -0.496713           -4.057988
 H            2.289039           -0.768159           -1.637877
 H            3.010325           -3.174254            0.606029
 H            5.476502           -3.309146            0.239579
 H            7.660197           -2.171821           -0.008561
 H            9.842920           -1.033499           -0.265210
 H           11.167016            1.079354           -0.333324
 H           10.062223            3.261260           -0.025048
 H            7.600870            3.392432            0.361321
 H            5.425786            2.253730            0.620759
 H            3.244133            1.124408            0.867943
 H            2.884896           -1.270126            3.279833
 H            1.861979           -1.426278            5.545746
 H           -0.581944           -1.322321            5.835454
 H           -2.083218           -1.065011            3.857366
 H           -2.363212           -0.822999            1.433825
 H           -3.103257            1.621853           -0.754057
 H           -5.169740            2.915266           -0.363282
 H           -7.231221            4.216989            0.025135
 H           -9.703118            4.277808            0.358526

