94

 C            2.238745            4.122999           -4.575253
 C            1.052738            3.374899           -4.211471
 C            1.128816            2.335406           -3.346991
 C            2.398056            1.934850           -2.752828
 C            3.588324            2.691523           -3.117080
 C            3.445904            3.797364           -4.055126
 C            4.815104            2.367379           -2.585765
 C            4.942330            1.282655           -1.660884
 N            6.165810            0.987715           -1.137727
 C            6.249816           -0.043855           -0.257208
 C            7.513811           -0.389437            0.327917
 C            7.606020           -1.426216            1.226212
 C            8.877910           -1.792058            1.837627
 C            8.959638           -2.812104            2.724189
 C            7.780788           -3.572855            3.091236
 C            6.573336           -3.279440            2.554093
 C            6.420244           -2.192701            1.594788
 C            5.196942           -1.888533            1.047595
 C            5.067746           -0.809239            0.109894
 N            3.849557           -0.516974           -0.413811
 C            3.762024            0.517853           -1.292853
 C            2.485863            0.873453           -1.869386
 C            1.295135            0.073845           -1.487053
 C            0.902195           -1.010139           -2.269876
 C            1.610154           -1.400851           -3.476750
 C            1.200145           -2.460737           -4.219010
 C            0.041337           -3.229650           -3.828783
 C           -0.654425           -2.905321           -2.709554
 C           -0.251341           -1.784517           -1.877524
 C           -0.948221           -1.455720           -0.725944
 C           -0.557518           -0.358529            0.086443
 C           -1.262822           -0.019279            1.283306
 C           -2.415937           -0.857208            1.697940
 C           -3.730307           -0.524992            1.200234
 N           -3.898626            0.535901            0.364627
 C           -5.152585            0.805436           -0.081243
 C           -5.369943            1.915034           -0.966145
 C           -6.631731            2.198851           -1.430812
 C           -6.875243            3.318578           -2.331834
 C           -8.120718            3.592644           -2.786077
 C           -9.251416            2.776670           -2.387422
 C           -9.085581            1.723284           -1.553222
 C           -7.769472            1.377480           -1.030110
 C           -7.592947            0.309561           -0.182666
 C           -6.287644           -0.013043            0.318954
 N           -6.122926           -1.071316            1.154663
 C           -4.864276           -1.341297            1.602538
 C           -4.655662           -2.449979            2.482806
 C           -3.393946           -2.748018            2.942701
 C           -3.168611           -3.875966            3.837066
 C           -1.927197           -4.173745            4.288807
 C           -0.786552           -3.373983            3.891739
 C           -0.939736           -2.314287            3.062598
 C           -2.249533           -1.940658            2.543518
 C           -0.875149            1.069982            2.061503
 C           -1.573275            1.450447            3.277301
 C           -1.164925            2.512205            4.018029
 C           -0.019250            3.294558            3.615737
 C            0.665685            2.981168            2.486759
 C            0.266540            1.856409            1.658408
 C            0.961851            1.528949            0.505492
 C            0.577396            0.425540           -0.301211
 H            2.122135            4.948990           -5.275940
 H            0.105460            3.677714           -4.655876
 H            0.240893            1.763874           -3.064027
 H            4.348736            4.348974           -4.316979
 H            5.720915            2.919845           -2.846204
 H            8.386319            0.198549            0.033792
 H            9.755441           -1.211376            1.552235
 H            9.905363           -3.092459            3.187011
 H            7.904865           -4.382404            3.809584
 H            5.677483           -3.841717            2.818289
 H            4.292249           -2.446406            1.302445
 H            2.485598           -0.816718           -3.762863
 H            1.729561           -2.759603           -5.122223
 H           -0.248801           -4.068998           -4.458267
 H           -1.531815           -3.472431           -2.400554
 H           -1.818645           -2.045083           -0.432512
 H           -4.499684            2.513259           -1.248307
 H           -6.014809            3.922075           -2.621833
 H           -8.312269            4.426959           -3.459865
 H          -10.230919            3.043195           -2.783289
 H           -9.925673            1.100199           -1.245548
 H           -8.427583           -0.320461            0.133465
 H           -5.528851           -3.041018            2.768650
 H           -4.038360           -4.466837            4.123739
 H           -1.748511           -5.015585            4.956730
 H            0.190930           -3.655433            4.281205
 H           -0.085623           -1.705484            2.753890
 H           -2.440145            0.857405            3.570854
 H           -1.686540            2.803019            4.928349
 H            0.269838            4.135189            4.244143
 H            1.532439            3.559233            2.168051
 H            1.827662            2.123045            0.207952

