90

 C           -3.848180           -6.381347           -1.256078
 C           -2.522031           -5.951693           -1.668680
 C           -2.123992           -4.666762           -1.532517
 C           -3.029384           -3.675538           -0.957742
 N           -2.635607           -2.416530           -0.822910
 C           -3.529187           -1.499769           -0.268500
 C           -4.850626           -1.926302            0.142103
 N           -5.246221           -3.258101           -0.008333
 C           -4.378664           -4.112626           -0.537516
 C           -4.738046           -5.515471           -0.719612
 C           -5.755833           -1.006869            0.693012
 C           -5.367616            0.331498            0.840515
 N           -6.282118            1.240465            1.382122
 C           -5.905434            2.505961            1.509525
 C           -6.822945            3.496626            2.064500
 C           -6.434494            4.785309            2.194292
 C           -5.108899            5.224358            1.788542
 C           -4.209676            4.361347            1.264877
 C           -4.555327            2.952151            1.096089
 N           -3.672780            2.106703            0.582915
 C           -4.046302            0.769310            0.434640
 C           -3.128636           -0.150130           -0.118609
 C           -1.773466            0.265030           -0.555987
 C           -1.583456            0.756468           -1.846419
 C           -2.676987            0.948667           -2.783442
 C           -2.454943            1.429132           -4.033692
 C           -1.119156            1.765505           -4.466998
 C           -0.063295            1.600152           -3.630433
 C           -0.247477            1.081020           -2.286188
 C            0.830208            0.879430           -1.438458
 C            0.651577            0.375762           -0.122999
 C            1.759874            0.122265            0.746004
 C            3.134046            0.259980            0.205264
 C            3.920095            1.410270            0.435875
 N            3.395585            2.464045            1.187843
 C            4.153347            3.533983            1.384548
 C            3.645446            4.662354            2.161109
 C            4.415607            5.756487            2.355436
 C            5.760322            5.845446            1.809191
 C            6.296686            4.837008            1.085713
 C            5.523486            3.625438            0.830396
 N            6.044413            2.637557            0.115129
 C            5.261583            1.500511           -0.107450
 C            5.799839            0.454893           -0.868895
 C            5.022705           -0.687887           -1.109097
 N            5.559908           -1.720299           -1.882387
 C            4.805912           -2.789429           -2.108878
 C            5.310964           -3.892981           -2.919413
 C            4.534787           -4.975632           -3.153146
 C            3.190356           -5.079560           -2.609807
 C            2.661104           -4.097178           -1.846307
 C            3.438719           -2.895987           -1.554395
 N            2.915319           -1.930508           -0.811329
 C            3.683565           -0.791415           -0.568780
 C            1.565337           -0.310002            2.056185
 C            2.664590           -0.562935            2.972207
 C            2.438360           -0.985674            4.242194
 C            1.091645           -1.196088            4.719380
 C            0.030832           -0.979328            3.901293
 C            0.220046           -0.534534            2.530993
 C           -0.857426           -0.344662            1.680750
 C           -0.674594            0.099148            0.343891
 H           -4.097311           -7.434264           -1.398180
 H           -1.861667           -6.708644           -2.093704
 H           -1.136074           -4.311073           -1.835498
 H           -5.740697           -5.813536           -0.404945
 H           -6.755638           -1.331277            1.001019
 H           -7.813287            3.141854            2.358946
 H           -7.105163            5.540327            2.608091
 H           -4.869744            6.280411            1.923281
 H           -3.207510            4.662971            0.948808
 H           -3.683425            0.697461           -2.449906
 H           -3.270377            1.574547           -4.739804
 H           -0.992867            2.151930           -5.476516
 H            0.950906            1.848814           -3.939319
 H            1.838902            1.108881           -1.783198
 H            2.632748            4.567647            2.561694
 H            4.053325            6.610426            2.930021
 H            6.320329            6.760932            2.007528
 H            7.304608            4.876613            0.666216
 H            6.814478            0.529744           -1.274627
 H            6.323836           -3.791811           -3.315633
 H            4.893018           -5.809226           -3.759437
 H            2.626140           -5.983224           -2.843346
 H            1.654641           -4.144671           -1.422635
 H            3.678228           -0.397253            2.608392
 H            3.258173           -1.175845            4.932520
 H            0.961736           -1.530449            5.746886
 H           -0.991452           -1.132041            4.244049
 H           -1.869423           -0.538282            2.037761

