94

 C           -4.701697           -0.191191           -6.076588
 C           -3.388558           -0.762627           -5.839538
 C           -2.862803           -0.815234           -4.594583
 C           -3.611546           -0.289869           -3.453102
 N           -3.057223           -0.350338           -2.245902
 C           -3.759753            0.144491           -1.148540
 C           -5.076627            0.717673           -1.299046
 C           -5.641779            0.766970           -2.617765
 C           -4.939987            0.280350           -3.693006
 C           -5.442862            0.303065           -5.056463
 C           -5.759390            1.204244           -0.180706
 C           -5.166184            1.140813            1.093011
 N           -5.887179            1.643121            2.174929
 C           -5.345687            1.594959            3.391734
 C           -6.103463            2.126402            4.522741
 C           -5.580443            2.095660            5.770483
 C           -4.265498            1.536407            6.020944
 C           -3.521494            1.027858            5.009481
 C           -4.019063            1.031576            3.644561
 C           -3.303654            0.533973            2.581011
 C           -3.850285            0.569698            1.255867
 C           -3.158990            0.074984            0.131759
 C           -1.810422           -0.526615            0.285765
 C           -1.685261           -1.879221            0.597484
 C           -2.834911           -2.747273            0.784392
 C           -2.680162           -4.059731            1.094022
 C           -1.362071           -4.629858            1.248026
 C           -0.255982           -3.861590            1.079794
 C           -0.368573           -2.453148            0.742310
 C            0.756006           -1.665333            0.556054
 C            0.646770           -0.288779            0.226020
 C            1.800834            0.527722            0.012020
 C            3.149755           -0.088285            0.085106
 C            3.739519           -0.616009           -1.082409
 C            3.079790           -0.607451           -2.355109
 C            3.702031           -1.124556           -3.467038
 C            3.088473           -1.143529           -4.783555
 C            3.745670           -1.663778           -5.847839
 C            5.079292           -2.215561           -5.702258
 C            5.706290           -2.228786           -4.502895
 C            5.046088           -1.682715           -3.319065
 N            5.688685           -1.712013           -2.151334
 C            5.062796           -1.188590           -1.021626
 C            5.762218           -1.226331            0.198694
 C            5.180035           -0.709002            1.358756
 C            5.860532           -0.724377            2.623090
 C            5.259957           -0.201793            3.741436
 C            5.886544           -0.182805            5.052879
 C            5.243173            0.346728            6.120408
 C            3.913033            0.912744            5.987185
 C            3.274706            0.927302            4.795014
 C            3.915548            0.366358            3.605596
 N            3.255235            0.395002            2.451959
 C            3.856606           -0.131698            1.309778
 C            1.675926            1.883181           -0.287548
 C            2.825640            2.746286           -0.496689
 C            2.670711            4.059564           -0.802517
 C            1.352334            4.636404           -0.926306
 C            0.246363            3.873569           -0.734905
 C            0.359306            2.462862           -0.406990
 C           -0.764978            1.675303           -0.219260
 C           -0.655752            0.295499            0.097302
 H           -5.065305           -0.178061           -7.103555
 H           -2.845134           -1.148165           -6.702230
 H           -1.880645           -1.243023           -4.382782
 H           -6.635960            1.199365           -2.739222
 H           -6.431591            0.731033           -5.220682
 H           -6.757325            1.638049           -0.278032
 H           -7.090504            2.539203            4.305763
 H           -6.130783            2.489193            6.625644
 H           -3.903281            1.541945            7.048120
 H           -2.532195            0.602773            5.181488
 H           -2.307541            0.103290            2.723805
 H           -3.826376           -2.310307            0.659488
 H           -3.538656           -4.715055            1.231020
 H           -1.290130           -5.686735            1.497890
 H            0.746199           -4.274482            1.189523
 H            1.749903           -2.102635            0.668486
 H            2.073120           -0.181994           -2.420358
 H            2.085861           -0.724836           -4.875479
 H            3.297389           -1.684570           -6.840146
 H            5.556613           -2.618476           -6.595989
 H            6.709347           -2.636900           -4.365275
 H            6.763451           -1.662819            0.220349
 H            6.860070           -1.159103            2.667640
 H            6.886104           -0.608517            5.138592
 H            5.700622            0.366591            7.109099
 H            3.450740            1.325989            6.883768
 H            2.276115            1.349267            4.662178
 H            3.817303            2.304554           -0.391569
 H            3.529224            4.710550           -0.958729
 H            1.280269            5.694011           -1.173003
 H           -0.755948            4.291703           -0.820415
 H           -1.758646            2.115186           -0.322322

