90

 C            9.614796           -1.298290           -2.526242
 C           10.182686           -1.471053           -1.289375
 C            9.402484           -1.276849           -0.106614
 C            8.037340           -0.904889           -0.218278
 C            7.462000           -0.727967           -1.525087
 C            8.249966           -0.925379           -2.644493
 C            6.044283           -0.340126           -1.640964
 C            5.450141           -0.155181           -2.875960
 C            4.085135            0.217796           -2.984786
 C            3.325367            0.402343           -1.857893
 C            3.898858            0.221925           -0.560364
 C            5.264642           -0.150467           -0.445190
 C            5.843207           -0.329560            0.860395
 C            5.056180           -0.137334            1.980995
 C            3.693645            0.233007            1.868688
 C            3.117340            0.412714            0.630311
 C            1.690019            0.811133            0.547718
 C            1.343758            2.160962            0.536155
 C            2.337045            3.221335            0.551371
 C            1.969290            4.527952            0.554123
 C            0.573668            4.900466            0.538389
 C           -0.392386            3.947613            0.516554
 C           -0.050381            2.535551            0.515305
 C           -1.030121            1.555990            0.506369
 C           -0.696349            0.175795            0.515571
 C           -1.702412           -0.840504            0.530402
 C           -3.129032           -0.437234            0.601179
 C           -3.707412           -0.232558            1.834782
 C           -5.064872            0.158543            1.936920
 C           -5.844628            0.347263            0.810713
 C           -7.254717            0.762906            0.917608
 C           -7.851337            0.986160            2.145332
 C           -9.209836            1.387802            2.240080
 C           -9.962419            1.562904            1.106505
 C           -9.383656            1.342060           -0.182511
 C           -8.025763            0.941553           -0.283830
 C           -7.452427            0.724366           -1.585484
 C           -8.236324            0.908217           -2.710003
 C           -9.594479            1.307694           -2.602083
 C          -10.159618            1.521338           -1.370382
 C           -6.040815            0.311952           -1.690723
 C           -5.447418            0.093332           -2.920596
 C           -4.087961           -0.302046           -3.019156
 C           -3.332682           -0.474317           -1.887243
 C           -3.905587           -0.259572           -0.594732
 C           -5.266218            0.134420           -0.489819
 C           -1.356593           -2.190294            0.522640
 C           -2.350509           -3.249919            0.526740
 C           -1.983532           -4.556820            0.533861
 C           -0.587984           -4.929905            0.534610
 C            0.378800           -3.977517            0.523847
 C            0.037713           -2.565224            0.517848
 C            1.018080           -1.585969            0.519736
 C            0.684732           -0.205634            0.523351
 C            7.261290           -0.713814            0.978055
 C            7.861253           -0.894569            2.211156
 C            9.227495           -1.266283            2.316338
 C            9.984315           -1.454629            1.187677
 H           10.197558           -1.443609           -3.435258
 H           11.227958           -1.757298           -1.187002
 H            7.836098           -0.797541           -3.645964
 H            6.021798           -0.292656           -3.795790
 H            3.655856            0.353763           -3.977027
 H            2.274840            0.689289           -1.931149
 H            5.472060           -0.267011            2.982220
 H            3.108605            0.375399            2.778423
 H            3.389136            2.930623            0.557984
 H            2.710080            5.326320            0.566366
 H            0.328501            5.961487            0.543664
 H           -1.449977            4.209300            0.501064
 H           -2.084361            1.842127            0.493804
 H           -3.127115           -0.368384            2.748598
 H           -5.482076            0.309283            2.934611
 H           -7.287000            0.857572            3.070252
 H           -9.638695            1.553141            3.227956
 H          -11.004874            1.870546            1.167593
 H           -7.824271            0.749088           -3.707744
 H          -10.174411            1.440477           -3.514804
 H          -11.199639            1.828802           -1.276027
 H           -6.015510            0.220734           -3.844052
 H           -3.659303           -0.464843           -4.007634
 H           -2.286411           -0.778115           -1.952731
 H           -3.402430           -2.958562            0.521262
 H           -2.724748           -5.354771            0.537493
 H           -0.343471           -5.991090            0.543185
 H            1.436307           -4.239958            0.521064
 H            2.072292           -1.872320            0.520452
 H            7.293487           -0.754717            3.132302
 H            9.658794           -1.398166            3.308184
 H           11.032464           -1.740399            1.256689

