96

 C            4.586007           -5.920350            4.695768
 C            3.897026           -4.880986            4.166669
 C            4.366606           -4.201086            2.967174
 C            3.680875           -3.143059            2.415072
 C            4.156474           -2.483133            1.235034
 C            3.461248           -1.402822            0.669185
 C            3.937162           -0.764784           -0.484799
 C            3.261402            0.339910           -1.096709
 C            3.773732            0.929385           -2.229403
 C            3.146813            2.055385           -2.914865
 C            1.875262            2.604538           -2.380621
 C            1.896545            3.656133           -1.467182
 C            3.133903            4.233715           -0.971142
 C            3.121967            5.265695           -0.089661
 C            1.873429            5.819237            0.381328
 C            0.690490            5.311676           -0.048186
 C            0.649458            4.206021           -0.989685
 C           -0.553244            3.683090           -1.436093
 C           -0.593138            2.605894           -2.360864
 C           -1.829339            2.065490           -2.832577
 C           -3.102497            2.673329           -2.370546
 C           -3.743428            2.147782           -1.169005
 C           -3.238299            1.108377           -0.422342
 C           -3.931326            0.649044            0.744031
 C           -3.463791           -0.405175            1.541114
 C           -4.178335           -0.824844            2.674291
 C           -3.711690           -1.902147            3.496410
 C           -4.417486           -2.312391            4.604611
 C           -3.957499           -3.406731            5.448648
 C           -4.666766           -3.797365            6.534597
 C           -5.906427           -3.134102            6.886668
 C           -6.381080           -2.110563            6.137119
 C           -5.661976           -1.646710            4.958152
 C           -6.128224           -0.609116            4.183731
 C           -5.410309           -0.164933            3.025001
 C           -5.882998            0.891081            2.233513
 C           -5.164658            1.309215            1.100035
 N           -5.670674            2.362599            0.340577
 C           -4.999797            2.764356           -0.738089
 C           -5.546818            3.868733           -1.523108
 C           -4.902308            4.307706           -2.628509
 C           -3.661262            3.702518           -3.062000
 C           -1.850467            1.003310           -3.733931
 C           -3.087779            0.422203           -4.225592
 C           -3.076015           -0.604710           -5.112946
 C           -1.827800           -1.149925           -5.594084
 C           -0.644717           -0.645039           -5.161444
 C           -0.603655            0.452311           -4.210287
 C            0.599057            0.976740           -3.765143
 C            0.638803            2.053157           -2.839528
 C            3.713470            2.593420           -4.027933
 C            4.948515            2.065823           -4.567179
 C            5.577819            1.020456           -3.982968
 C            5.021194            0.399186           -2.783242
 N            5.675015           -0.627448           -2.241321
 C            5.159863           -1.229864           -1.094920
 C            5.858065           -2.311818           -0.531356
 C            5.376307           -2.945019            0.622801
 C            6.072855           -4.049473            1.214756
 C            5.598128           -4.667758            2.348819
 C            6.295270           -5.790037            2.962615
 C            5.812566           -6.385389            4.079443
 H            4.244113           -6.435497            5.592342
 H            2.973895           -4.520781            4.618815
 H            2.757157           -2.783663            2.868373
 H            2.538475           -1.053412            1.133490
 H            2.333855            0.701958           -0.645317
 H            4.072794            3.809044           -1.330993
 H            4.046604            5.702870            0.285329
 H            1.916065            6.648943            1.085762
 H           -0.260951            5.716748            0.295660
 H           -1.495403            4.104521           -1.077309
 H           -2.304389            0.615457           -0.705009
 H           -2.532880           -0.906903            1.275085
 H           -2.778817           -2.393246            3.220007
 H           -3.025030           -3.896563            5.171446
 H           -4.332431           -4.614918            7.171785
 H           -6.436581           -3.488919            7.769370
 H           -7.311831           -1.602913            6.388729
 H           -7.059199           -0.100789            4.436164
 H           -6.814519            1.402132            2.485622
 H           -6.484046            4.305638           -1.172340
 H           -5.295804            5.129783           -3.227612
 H           -3.189451            4.098605           -3.961959
 H           -4.026861            0.838922           -3.856855
 H           -4.000812           -1.043985           -5.484929
 H           -1.870538           -1.971307           -6.308067
 H            0.306556           -1.042946           -5.513903
 H            1.541001            0.561830           -4.131937
 H            3.251865            3.435741           -4.544376
 H            5.349362            2.542771           -5.462445
 H            6.508971            0.600301           -4.368539
 H            6.780879           -2.649393           -1.007626
 H            6.994117           -4.388297            0.740169
 H            7.216119           -6.128177            2.488342
 H            6.326094           -7.224793            4.546228

