96

 C          -14.802594            1.917577            0.001926
 C          -13.536346            2.284263           -0.310248
 C          -12.417393            1.376811           -0.095522
 C          -11.123612            1.728737           -0.408325
 C          -10.033848            0.823475           -0.192979
 C           -8.713117            1.175969           -0.515754
 C           -7.656016            0.281229           -0.303648
 C           -6.295384            0.596080           -0.624807
 C           -5.298333           -0.323833           -0.398448
 C           -3.903519           -0.075627           -0.710488
 C           -2.956140           -1.019906           -0.470670
 C           -1.529387           -0.779690           -0.798116
 C           -1.031987           -1.136001           -2.050090
 C           -1.852450           -1.776953           -3.063294
 C           -1.340538           -2.104601           -4.276966
 C            0.038936           -1.819465           -4.596803
 C            0.847812           -1.224776           -3.683579
 C            0.349763           -0.862554           -2.367845
 C            1.171508           -0.262582           -1.427319
 C            0.686730            0.090913           -0.140325
 C            1.530331            0.704155            0.838099
 C            2.950950            0.964149            0.499290
 C            3.279394            2.246157           -0.109779
 C            4.552353            2.550563           -0.446644
 C            5.636210            1.597957           -0.205718
 N            6.875932            1.938201           -0.550815
 C            7.912715            1.032652           -0.324303
 C            9.218402            1.400722           -0.691568
 C           10.291221            0.521817           -0.481442
 C           11.630720            0.877974           -0.846198
 C           12.681586            0.013834           -0.636987
 C           14.048268            0.363482           -0.999726
 C           15.070036           -0.499816           -0.786222
 C           14.829679           -1.798448           -0.189637
 C           13.578204           -2.175283            0.166791
 C           12.440262           -1.289378           -0.037631
 C           11.160966           -1.652294            0.319043
 C           10.052086           -0.768348            0.113026
 C            8.745608           -1.132946            0.477776
 C            7.669425           -0.259541            0.272686
 C            6.321254           -0.588979            0.630120
 C            5.304146            0.309175            0.405406
 C            3.918794            0.042183            0.743803
 C            1.034613            1.054163            2.092161
 C            1.854642            1.696643            3.105030
 C            1.344339            2.017870            4.321049
 C           -0.032882            1.724804            4.643775
 C           -0.841276            1.129185            3.731004
 C           -0.345421            0.773962            2.412437
 C           -1.167857            0.176705            1.471199
 C           -0.684535           -0.172070            0.182183
 C           -3.315855           -2.304892            0.113396
 C           -4.599315           -2.592208            0.425263
 C           -5.663299           -1.618261            0.180980
 N           -6.915563           -1.945012            0.492268
 C           -7.933091           -1.019308            0.259595
 C           -9.253268           -1.375043            0.584748
 C          -10.307409           -0.475971            0.365332
 C          -11.661600           -0.820445            0.683900
 C          -12.693890            0.063603            0.465593
 C          -14.075179           -0.274443            0.780569
 C          -15.078241            0.608615            0.559473
 H          -15.646563            2.587888           -0.154712
 H          -13.314230            3.264378           -0.730734
 H          -10.902215            2.709350           -0.829391
 H           -8.507421            2.159561           -0.938727
 H           -6.071887            1.574541           -1.051918
 H           -3.644761            0.890387           -1.145675
 H           -2.893516           -1.988796           -2.814302
 H           -1.950703           -2.588355           -5.038520
 H            0.401914           -2.096056           -5.585469
 H            1.890501           -1.000358           -3.906780
 H            2.215122           -0.053465           -1.673159
 H            2.458665            2.944941           -0.281210
 H            4.827360            3.502869           -0.905812
 H            9.384101            2.381302           -1.143257
 H           11.796895            1.857276           -1.295978
 H           14.212721            1.343127           -1.447156
 H           16.095270           -0.247577           -1.053645
 H           15.687398           -2.452944           -0.040996
 H           13.382526           -3.148203            0.616171
 H           10.966047           -2.626015            0.768280
 H            8.566158           -2.109957            0.927161
 H            6.123097           -1.562052            1.081400
 H            3.683814           -0.920505            1.199243
 H            2.893693            1.914779            2.853287
 H            1.954135            2.502368            5.082546
 H           -0.394511            1.996622            5.634298
 H           -1.882239            0.898908            3.956306
 H           -2.210940           -0.034604            1.717407
 H           -2.510308           -3.020607            0.286698
 H           -4.897659           -3.546763            0.864739
 H           -9.445267           -2.362590            1.010105
 H          -11.854391           -1.807614            1.104981
 H          -14.266147           -1.262329            1.198401
 H          -16.114197            0.365143            0.791191

