86

 C            6.891455            6.525733           -3.179479
 C            5.818861            6.010692           -2.553726
 C            5.879679            4.558214           -2.357928
 C            4.962632            3.739772           -1.764837
 C            5.219955            2.321672           -1.674311
 C            6.441938            1.784966           -2.208984
 C            6.690315            0.408249           -2.117883
 C            5.765377           -0.455942           -1.514911
 C            6.023532           -1.874984           -1.423103
 C            5.095952           -2.665487           -0.831301
 S            5.162904           -4.407471           -0.597029
 C            3.593206           -4.448214            0.204089
 C            3.035255           -3.222738            0.299182
 C            1.728032           -2.955173            0.927166
 C            1.655443           -2.640622            2.282878
 C            2.838072           -2.491892            3.113155
 C            2.734378           -2.183378            4.430818
 C            1.440326           -1.993594            5.044177
 C            0.305134           -2.125708            4.312322
 C            0.362094           -2.461984            2.900181
 C           -0.790989           -2.627116            2.150009
 C           -0.733435           -2.938914            0.765631
 C           -1.916610           -3.139126           -0.011711
 C           -3.224595           -3.134464            0.669458
 C           -3.844086           -4.242756            1.127784
 S           -5.392156           -3.877159            1.887632
 C           -5.228413           -2.150841            1.592901
 C           -6.099546           -1.168869            1.928407
 C           -5.764077            0.196657            1.594344
 C           -6.626678            1.252484            1.921845
 C           -6.302239            2.578176            1.601469
 C           -5.066484            2.861599            0.923341
 C           -4.205273            1.803370            0.595921
 C           -4.526898            0.475962            0.917608
 C           -3.636067           -0.609659            0.581561
 C           -3.974968           -1.889907            0.910014
 C           -4.730680            4.226166            0.590734
 C           -5.586932            5.235067            0.924817
 C           -5.442301            6.675007            0.685287
 C           -6.469541            7.413198            1.140490
 S           -7.715182            6.417785            1.906204
 C           -6.829609            4.927547            1.610798
 C           -7.191859            3.665225            1.943178
 C           -1.843430           -3.377085           -1.383044
 C           -3.025451           -3.560689           -2.207064
 C           -2.921149           -3.790165           -3.540744
 C           -1.626985           -3.854546           -4.179069
 C           -0.492241           -3.691218           -3.452675
 C           -0.549937           -3.452786           -2.020848
 C            0.603081           -3.314064           -1.265058
 C            0.544911           -3.068018            0.132393
 C            3.855555           -2.147585           -0.284590
 C            3.587780           -0.811730           -0.358844
 C            4.541662            0.076525           -0.980437
 C            4.295403            1.454878           -1.072089
 C            7.396244            2.673588           -2.833118
 C            7.106803            3.995601           -2.893583
 S            8.081079            5.282898           -3.590731
 H            7.094417            7.551322           -3.442588
 H            4.961839            6.574203           -2.205636
 H            4.032735            4.128061           -1.353297
 H            7.618194            0.002596           -2.522255
 H            6.953269           -2.267405           -1.831521
 H            3.194990           -5.389067            0.551495
 H            3.811862           -2.634776            2.641163
 H            3.617648           -2.070344            5.058091
 H            1.409747           -1.743803            6.103612
 H           -0.679258           -1.984879            4.758287
 H           -1.769011           -2.514591            2.624617
 H           -3.502695           -5.265095            1.075856
 H           -7.040011           -1.368994            2.438995
 H           -7.565311            1.038667            2.433986
 H           -3.267331            2.016433            0.081618
 H           -2.700802           -0.385141            0.067653
 H           -3.792201            4.421221            0.074961
 H           -4.564926            7.060191            0.180317
 H           -6.609544            8.481088            1.092880
 H           -8.124899            3.439210            2.456679
 H           -3.999890           -3.505635           -1.718379
 H           -3.804133           -3.929751           -4.162960
 H           -1.595763           -4.036401           -5.252176
 H            0.492286           -3.734145           -3.917871
 H            1.581210           -3.390963           -1.746407
 H            2.663594           -0.395772            0.043688
 H            3.367158            1.859975           -0.667264
 H            8.317581            2.256146           -3.235844

