86

 C            6.154546           -6.647359            4.155141
 C            5.140520           -5.778444            4.000499
 C            5.370921           -4.767304            2.963024
 C            4.547331           -3.754560            2.564749
 C            4.969606           -2.858302            1.514017
 C            4.144797           -1.809015            1.080808
 C            4.552291           -0.935592            0.060673
 C            5.840711           -1.119803           -0.549543
 C            6.666194           -2.168184           -0.118497
 C            6.256151           -3.041111            0.898870
 C            7.108775           -4.122804            1.338197
 C            6.665425           -4.936458            2.326570
 S            7.490640           -6.313209            3.045014
 C            6.266197           -0.222307           -1.599409
 C            5.429358            0.773318           -1.979227
 S            5.701153            1.988473           -3.221781
 C            4.133184            2.746093           -2.948243
 C            3.430067            2.128772           -1.975290
 C            2.088289            2.549237           -1.530917
 C            1.951815            3.439921           -0.467805
 C            3.090761            3.937733            0.283896
 C            2.925384            4.808422            1.311989
 C            1.606489            5.261345            1.689241
 C            0.510325            4.824966            1.018681
 C            0.634842            3.900212           -0.094666
 C           -0.474860            3.472959           -0.805708
 C           -0.352638            2.563169           -1.889293
 C           -1.486952            2.141319           -2.650397
 C           -2.800321            2.749722           -2.368121
 C           -3.269397            3.859135           -2.977284
 S           -4.876791            4.304631           -2.406478
 C           -4.952199            2.948678           -1.288272
 C           -5.965630            2.622935           -0.449944
 C           -5.816801            1.460137            0.395521
 C           -4.608052            0.685155            0.326819
 C           -4.466976           -0.441426            1.151555
 C           -5.482398           -0.824653            2.040875
 C           -5.332752           -1.984141            2.888571
 C           -6.337027           -2.331217            3.744988
 C           -6.389581           -3.457895            4.682822
 C           -7.528793           -3.528271            5.393015
 S           -8.648923           -2.222014            4.982831
 C           -7.549069           -1.532618            3.796303
 C           -7.739280           -0.437564            3.021499
 C           -6.690301           -0.047623            2.106227
 C           -6.833516            1.077645            1.282349
 C           -3.560859            1.075586           -0.587646
 C           -3.726582            2.176775           -1.376187
 C           -1.358189            1.200215           -3.670229
 C           -2.491534            0.735859           -4.451036
 C           -2.332973           -0.179332           -5.440827
 C           -1.028377           -0.722429           -5.740571
 C            0.061903           -0.322462           -5.038241
 C           -0.053352            0.663132           -3.977292
 C            1.058191            1.102528           -3.276351
 C            0.943701            2.062333           -2.235953
 C            4.125530            0.976960           -1.375544
 C            3.700050            0.142340           -0.383317
 H            6.238704           -7.476141            4.839533
 H            4.216414           -5.781703            4.565467
 H            3.571189           -3.600742            3.021217
 H            3.168016           -1.668575            1.545421
 H            7.643118           -2.306621           -0.582544
 H            8.079625           -4.251747            0.862552
 H            7.244318           -0.371544           -2.053589
 H            3.844721            3.603846           -3.536359
 H            4.083071            3.586281           -0.004450
 H            3.775867            5.186255            1.877969
 H            1.525677            5.957721            2.522384
 H           -0.492161            5.154053            1.291136
 H           -1.468541            3.837646           -0.534153
 H           -2.785106            4.460072           -3.731685
 H           -6.885560            3.202045           -0.389089
 H           -3.550306           -1.030188            1.099346
 H           -4.412822           -2.562495            2.824725
 H           -5.556547           -4.146049            4.758446
 H           -7.818358           -4.249690            6.140038
 H           -8.649249            0.158951            3.061514
 H           -7.750563            1.665396            1.332299
 H           -2.649437            0.478362           -0.632315
 H           -3.474869            1.145716           -4.213447
 H           -3.178934           -0.528697           -6.031227
 H           -0.953406           -1.456731           -6.540994
 H            1.052906           -0.724133           -5.248012
 H            2.046909            0.707146           -3.521481
 H            2.724307            0.271558            0.086321

