86

 C            3.835692            3.440943           -5.188727
 C            2.956479            2.684307           -4.509611
 C            3.544806            1.943058           -3.389213
 C            2.926797            1.099046           -2.513094
 C            3.688768            0.457987           -1.467328
 C            5.098686            0.717830           -1.365462
 C            5.849524            0.094856           -0.359454
 C            5.249581           -0.782250            0.553980
 C            6.036727           -1.421721            1.585046
 C            5.418044           -2.266705            2.444298
 S            6.124353           -3.168831            3.778734
 C            4.576323           -3.906903            4.216004
 C            3.580150           -3.503329            3.408880
 C            3.998076           -2.556934            2.369360
 C            3.235241           -1.964041            1.405802
 C            3.840609           -1.051817            0.464184
 C            3.081924           -0.423364           -0.546596
 C            1.625830           -0.702858           -0.652486
 C            1.177600           -1.758048           -1.445023
 C            2.086471           -2.617659           -2.183542
 C            1.620314           -3.637690           -2.947835
 C            0.202627           -3.896307           -3.047591
 C           -0.687516           -3.121763           -2.377158
 C           -0.239245           -2.017784           -1.545942
 C           -1.139813           -1.220255           -0.858422
 C           -0.701363           -0.141614           -0.045388
 C           -1.624038            0.686645            0.666567
 C           -3.081487            0.419289            0.548770
 C           -3.703595           -0.465261            1.455829
 C           -2.954965           -1.128631            2.497366
 C           -3.587796           -1.976110            3.359461
 C           -3.014451           -2.739890            4.472501
 C           -3.906423           -3.494522            5.137039
 S           -5.536759           -3.339554            4.466009
 C           -5.014257           -2.207355            3.225657
 C           -5.764281           -1.608705            2.269564
 C           -5.116223           -0.705927            1.344038
 C           -5.854374           -0.061847            0.342123
 C           -5.238825            0.816930           -0.559406
 C           -3.826960            1.066959           -0.460026
 C           -3.204924            1.980039           -1.389820
 C           -3.955182            2.592953           -2.350720
 C           -3.519289            3.543448           -3.379017
 C           -4.506204            3.969274           -4.186114
 S           -6.066508            3.249415           -3.762231
 C           -5.378670            2.323415           -2.434510
 C           -6.012636            1.478001           -1.586841
 C           -1.175171            1.739091            1.462948
 C           -2.083815            2.598910            2.201457
 C           -1.617050            3.617111            2.968092
 C           -0.199175            3.873606            3.070198
 C            0.690536            3.098486            2.399818
 C            0.241749            1.996649            1.566403
 C            1.141790            1.200082            0.876960
 C            0.703027            0.122944            0.062565
 C            5.730779            1.617227           -2.305165
 C            4.968787            2.194023           -3.265308
 S            5.470923            3.316098           -4.523167
 H            3.665148            4.076110           -6.042754
 H            1.899461            2.593164           -4.729252
 H            1.857916            0.891347           -2.585089
 H            6.919395            0.294007           -0.287964
 H            7.102531           -1.206463            1.639771
 H            4.538749           -4.589759            5.049200
 H            2.545907           -3.819093            3.475660
 H            2.165877           -2.166113            1.325714
 H            3.156555           -2.415976           -2.103186
 H            2.296811           -4.285636           -3.503755
 H           -0.121857           -4.726353           -3.673569
 H           -1.760324           -3.302521           -2.440921
 H           -2.211569           -1.418598           -0.937895
 H           -1.883997           -0.934954            2.577049
 H           -1.957431           -2.665399            4.698389
 H           -3.747934           -4.144054            5.982565
 H           -6.834947           -1.779877            2.171615
 H           -6.926525           -0.245589            0.264118
 H           -2.133204            2.166648           -1.303340
 H           -2.480298            3.844844           -3.438455
 H           -4.455247            4.659196           -5.012732
 H           -7.081107            1.278467           -1.648155
 H           -3.154092            2.399072            2.119655
 H           -2.293636            4.265003            3.524034
 H            0.125817            4.702325            3.697766
 H            1.763573            3.277540            2.465331
 H            2.213603            1.398537            0.956397
 H            6.799608            1.803380           -2.214550

