80

 C           -3.047795           -1.792214           -3.913445
 C           -4.276161           -2.058446           -3.416017
 C           -4.686994           -1.554054           -2.109433
 C           -5.928820           -1.820184           -1.601750
 C           -6.344386           -1.324595           -0.309572
 C           -7.602613           -1.598390            0.197403
 C           -7.985266           -1.097804            1.470071
 C           -9.196023           -1.265602            2.139851
 S           -9.144928           -0.465841            3.629327
 C           -7.567806            0.119495            3.459201
 C           -7.038443           -0.292474            2.237180
 C           -5.752396           -0.024766            1.697200
 C           -5.400310           -0.522483            0.454815
 C           -4.096506           -0.263168           -0.114903
 C           -3.735623           -0.748478           -1.341235
 C           -2.418485           -0.498912           -1.938238
 C           -1.420724            0.308084           -1.191067
 C           -1.353639            1.686956           -1.379170
 C           -2.267135            2.400640           -2.254969
 C           -2.167391            3.743084           -2.428994
 C           -1.145729            4.501122           -1.744622
 C           -0.271440            3.881768           -0.911673
 C           -0.338669            2.447757           -0.689254
 C            0.550061            1.807479            0.159127
 C            0.485080            0.405676            0.376827
 C            1.386865           -0.259949            1.264606
 C            2.370710            0.548575            2.028499
 C            2.015030            1.070604            3.230592
 C            2.946422            1.864544            4.005657
 C            4.196419            2.103513            3.550211
 C            4.647014            1.571507            2.268000
 C            5.911912            1.808597            1.804855
 C            6.368053            1.285867            0.537550
 C            7.651123            1.527076            0.078320
 C            8.074178            1.000597           -1.170637
 C            9.314625            1.133373           -1.792467
 S            9.306879            0.313954           -3.271722
 C            7.712008           -0.235467           -3.158674
 C            7.142086            0.204648           -1.964858
 C            5.830024           -0.029185           -1.474016
 C            5.438923            0.491800           -0.252834
 C            4.109638            0.263622            0.269613
 C            3.711681            0.770467            1.475734
 C            1.319153           -1.638881            1.452995
 C            2.223690           -2.351031            2.339341
 C            2.121428           -3.692990            2.515662
 C            1.106973           -4.452257            1.822324
 C            0.241340           -3.834592            0.979212
 C            0.309857           -2.400712            0.756285
 C           -0.576018           -1.761004           -0.095451
 C           -0.513010           -0.358720           -0.310161
 C           -2.099635           -0.996525           -3.160592
 H           -2.729954           -2.162779           -4.886966
 H           -4.999406           -2.655368           -3.969812
 H           -6.645150           -2.419111           -2.163835
 H           -8.316349           -2.197109           -0.364638
 H          -10.051501           -1.814359            1.789217
 H           -7.072479            0.719218            4.201847
 H           -5.054733            0.576284            2.278424
 H           -3.401225            0.339951            0.474441
 H           -3.037405            1.819989           -2.765695
 H           -2.849043            4.283057           -3.084383
 H           -1.103376            5.574689           -1.920612
 H            0.506012            4.436631           -0.387596
 H            1.323967            2.383848            0.671567
 H            1.020737            0.907245            3.645679
 H            2.598288            2.255940            4.960472
 H            4.908323            2.698061            4.121191
 H            6.616458            2.404175            2.385327
 H            8.353839            2.119368            0.660904
 H           10.166740            1.668866           -1.413887
 H            7.234635           -0.834933           -3.913055
 H            5.143872           -0.623525           -2.075299
 H            3.426264           -0.334781           -0.337953
 H            2.988859           -1.769446            2.856852
 H            2.795454           -4.231670            3.180012
 H            1.062630           -5.525498            1.999977
 H           -0.530512           -4.390358            0.448039
 H           -1.346968           -2.338022           -0.611453
 H           -1.123501           -0.812849           -3.608861

