78

 C            8.474188           -2.190664            1.385998
 C            8.694076           -0.811672            1.380073
 C            7.659106            0.068085            1.023984
 C            6.386149           -0.458338            0.669080
 C            6.173333           -1.864708            0.678917
 C            7.227983           -2.718124            1.039979
 C            4.861884           -2.372127            0.312855
 C            3.854313           -1.536068           -0.033788
 C            4.037087           -0.094113           -0.055799
 C            3.004454            0.796225           -0.413235
 C            1.654485            0.313543           -0.795966
 C            1.367276            0.026712           -2.128980
 C            2.359213            0.146614           -3.183949
 C            2.045365           -0.123847           -4.476497
 C            0.712924           -0.549160           -4.837839
 C           -0.248198           -0.681765           -3.888947
 C            0.034976           -0.394706           -2.493002
 C           -0.945100           -0.508178           -1.520308
 C           -0.669442           -0.223410           -0.156448
 C           -1.674873           -0.339525            0.853758
 C           -3.028391           -0.810770            0.469406
 C           -4.035538            0.086562            0.059897
 C           -3.821429            1.522539           -0.012487
 C           -4.803763            2.365576           -0.410786
 C           -6.118179            1.871805           -0.784554
 C           -7.146296            2.732232           -1.201291
 C           -8.396334            2.217877           -1.552841
 C           -8.646531            0.845165           -1.497005
 C           -7.638870           -0.041525           -1.084392
 C           -6.361887            0.471727           -0.724213
 C           -5.313606           -0.427834           -0.298669
 C           -5.565177           -1.826140           -0.242003
 C           -6.879473           -2.319952           -0.614914
 C           -7.860953           -1.475989           -1.013679
 C           -4.540491           -2.692632            0.171268
 C           -3.290105           -2.188458            0.522168
 C           -1.388489           -0.049387            2.186294
 C           -2.384716           -0.154202            3.238786
 C           -2.072456            0.121623            4.530672
 C           -0.736893            0.535511            4.893976
 C            0.228130            0.653810            3.947091
 C           -0.054112            0.364414            2.551567
 C            0.927243            0.472387            1.579469
 C            0.650884            0.190436            0.215254
 C            3.236202            2.180481           -0.416257
 C            4.481748            2.697858           -0.067992
 C            5.531962            1.838388            0.292690
 C            5.310796            0.433869            0.299301
 C            6.842387            2.346152            0.660734
 C            7.849137            1.508747            1.006899
 H            9.284802           -2.863936            1.664314
 H            9.671425           -0.417062            1.653176
 H            7.073504           -3.795835            1.050069
 H            4.719673           -3.452779            0.328343
 H            2.869412           -1.920387           -0.308510
 H            3.364943            0.462549           -2.900203
 H            2.782873           -0.029622           -5.272282
 H            0.511642           -0.757498           -5.887499
 H           -1.258096           -1.003062           -4.142258
 H           -1.955391           -0.818130           -1.798375
 H           -2.834109            1.896699            0.267761
 H           -4.638102            3.441696           -0.463598
 H           -6.967846            3.805181           -1.250545
 H           -9.186172            2.896264           -1.874944
 H           -9.626548            0.460933           -1.775092
 H           -7.044789           -3.396079           -0.561454
 H           -8.847012           -1.846295           -1.293167
 H           -4.723695           -3.765198            0.217759
 H           -2.500139           -2.869584            0.842759
 H           -3.392597           -0.461733            2.953756
 H           -2.813948            0.040724            5.324206
 H           -0.536661            0.747529            5.943107
 H            1.240496            0.966182            4.201949
 H            1.938893            0.777453            1.858222
 H            2.426062            2.855880           -0.695981
 H            4.641555            3.775135           -0.075874
 H            6.983605            3.426926            0.647445
 H            8.832321            1.889402            1.282840

