96

 C           -4.883949            4.567342           -3.526638
 C           -3.740016            3.751625           -3.755579
 C           -3.056088            3.205824           -2.697351
 C           -3.474017            3.442434           -1.350480
 C           -4.610205            4.261752           -1.125044
 C           -5.307189            4.817737           -2.245088
 C           -5.048033            4.524904            0.209543
 C           -4.385683            3.988529            1.291134
 C           -4.817193            4.247329            2.661981
 C           -4.165742            3.720139            3.719602
 C           -2.997754            2.863325            3.545779
 C           -2.544332            2.580140            2.219245
 C           -1.414016            1.743826            2.029486
 C           -0.754456            1.204447            3.159473
 C           -1.202875            1.492559            4.438472
 C           -2.322615            2.320832            4.637030
 C           -0.972643            1.483238            0.673448
 C            0.218789            0.633754            0.430772
 C            1.448880            1.203908            0.335799
 C            2.632380            0.415611            0.039162
 C            3.878781            0.990173           -0.073582
 C            5.031898            0.201007           -0.387431
 C            6.305818            0.778092           -0.510274
 C            7.429151           -0.004512           -0.816737
 C            8.734971            0.572591           -0.940040
 C            9.832897           -0.203775           -1.234169
 C           11.167208            0.366711           -1.357766
 C           12.236354           -0.413838           -1.645193
 C           12.079795           -1.841364           -1.839277
 C           10.861159           -2.424110           -1.737448
 C            9.675477           -1.636538           -1.429279
 C            8.429076           -2.210566           -1.319681
 C            7.272746           -1.422463           -1.010667
 C            5.998984           -1.998706           -0.891054
 C            4.874747           -1.216350           -0.581975
 C            3.569879           -1.793007           -0.453769
 C            2.473385           -1.015339           -0.153675
 C            1.142387           -1.582092           -0.021315
 C            0.060005           -0.808060            0.260391
 C           -1.284035           -1.423262            0.378683
 C           -2.209462           -1.227871           -0.605999
 C           -3.512237           -1.842276           -0.559566
 C           -3.823186           -2.680912            0.522781
 C           -5.108965           -3.335987            0.588239
 C           -6.032542           -3.136092           -0.413100
 C           -5.744830           -2.275341           -1.516650
 C           -6.717346           -2.060056           -2.544681
 C           -6.448138           -1.220167           -3.596383
 C           -5.192617           -0.553813           -3.675536
 C           -4.241800           -0.749219           -2.704163
 C           -4.489254           -1.619023           -1.596408
 C           -5.392802           -4.198601            1.731568
 C           -4.490971           -4.383324            2.717894
 C           -3.184735           -3.734064            2.686983
 C           -2.860555           -2.890201            1.578440
 C           -1.590696           -2.259124            1.525389
 C           -0.674631           -2.464824            2.584662
 C           -1.005425           -3.280875            3.654437
 C           -2.256746           -3.920486            3.709191
 C           -1.625324            2.033204           -0.392157
 C           -2.780856            2.876140           -0.220270
 C           -3.231989            3.144563            1.081982
 H           -5.411564            4.985281           -4.382451
 H           -3.418641            3.571764           -4.779931
 H           -2.176933            2.582757           -2.869769
 H           -6.179925            5.441516           -2.057692
 H           -5.921142            5.160431            0.352079
 H           -5.691300            4.884994            2.793895
 H           -4.491924            3.914064            4.741674
 H            0.110709            0.556639            3.013888
 H           -0.689740            1.075272            5.304264
 H           -2.658113            2.532747            5.651133
 H            1.580802            2.278814            0.471762
 H            4.011525            2.062085            0.073009
 H            6.423670            1.851793           -0.364414
 H            8.837559            1.647596           -0.793323
 H           11.268587            1.441093           -1.209500
 H           13.237973            0.002652           -1.738870
 H           12.972144           -2.421516           -2.068424
 H           10.727587           -3.495572           -1.881118
 H            8.296290           -3.282345           -1.465619
 H            5.879798           -3.071844           -1.039830
 H            3.464394           -2.867879           -0.600800
 H            1.038656           -2.660121           -0.159047
 H           -1.976417           -0.592266           -1.464273
 H           -7.004146           -3.627496           -0.379384
 H           -7.674371           -2.574239           -2.472018
 H           -7.185369           -1.048397           -4.378931
 H           -5.003358            0.113622           -4.514563
 H           -3.281198           -0.234150           -2.759993
 H           -6.368134           -4.684717            1.755201
 H           -4.707438           -5.023916            3.572945
 H            0.298489           -1.973616            2.554356
 H           -0.294035           -3.433380            4.465397
 H           -2.494636           -4.560375            4.557335
 H           -1.278122            1.843314           -1.410631

