96

 C           -6.979249           -3.331767           -3.682249
 C           -5.921586           -2.457584           -4.061900
 C           -4.860303           -2.245181           -3.216769
 C           -4.791525           -2.892748           -1.943393
 C           -5.845776           -3.766717           -1.570528
 C           -6.942218           -3.970841           -2.468306
 C           -5.808332           -4.432971           -0.307395
 C           -4.762100           -4.235975            0.566003
 C           -4.710850           -4.908040            1.861444
 C           -3.691465           -4.706716            2.722250
 C           -2.586948           -3.812332            2.395420
 C           -2.592491           -3.140909            1.133835
 C           -3.682507           -3.345152            0.207531
 C           -3.693786           -2.684250           -1.031941
 C           -2.593392           -1.806499           -1.355282
 C           -1.559818           -1.612521           -0.492924
 C           -1.521775           -2.275831            0.788844
 C           -0.453532           -2.097864            1.708213
 C            0.715513           -1.249124            1.374652
 C            1.803167           -1.799725            0.773243
 C            2.993760           -1.017669            0.486668
 C            4.110655           -1.578334           -0.091579
 C            5.285789           -0.798667           -0.343124
 C            6.431845           -1.362540           -0.925246
 C            7.575500           -0.587752           -1.172518
 C            8.745251           -1.148078           -1.781424
 C            9.856918           -0.376465           -2.035110
 C           11.048575           -0.927589           -2.665626
 C           12.130998           -0.151179           -2.912629
 C           12.132385            1.252663           -2.552590
 C           11.051314            1.816401           -1.961858
 C            9.858333            1.032243           -1.673355
 C            8.748175            1.588226           -1.078263
 C            7.576823            0.806390           -0.814026
 C            6.434259            1.367868           -0.223293
 C            5.286644            0.595385            0.014986
 C            4.111153            1.158823            0.609237
 C            2.993059            0.390235            0.845201
 C            1.797163            0.940929            1.459676
 C            0.708778            0.169304            1.722090
 C           -0.479967            0.759428            2.381556
 C           -1.387700            1.576915            1.654954
 C           -1.235642            1.839694            0.243322
 C           -2.123356            2.621704           -0.427194
 C           -3.251957            3.227235            0.239676
 C           -3.421822            2.995322            1.614540
 C           -4.535037            3.588719            2.319251
 C           -5.437125            4.375672            1.638758
 C           -5.288915            4.620689            0.239114
 C           -6.234976            5.435466           -0.461542
 C           -6.091445            5.674131           -1.805440
 C           -4.995088            5.111011           -2.517982
 C           -4.076481            4.324174           -1.867899
 C           -4.197198            4.053912           -0.468712
 C           -4.672110            3.330234            3.749932
 C           -3.797246            2.545930            4.413363
 C           -2.668083            1.922779            3.732676
 C           -2.487926            2.160407            2.334942
 C           -1.766520            1.108278            4.414892
 C           -0.680929            0.528834            3.739333
 C           -0.470724           -2.753769            2.935939
 C           -1.530854           -3.606688            3.280978
 H           -7.811223           -3.480803           -4.368676
 H           -5.971493           -1.962586           -5.030202
 H           -4.049897           -1.573823           -3.505638
 H           -7.744973           -4.641624           -2.165568
 H           -6.629233           -5.100820           -0.048729
 H           -5.534159           -5.580359            2.103593
 H           -3.656961           -5.206694            3.690409
 H           -2.614119           -1.295104           -2.319666
 H           -0.734118           -0.946092           -0.747712
 H            1.816081           -2.855567            0.497612
 H            4.123237           -2.632813           -0.366642
 H            6.433255           -2.419481           -1.190812
 H            8.731990           -2.205639           -2.044021
 H           11.032275           -1.984236           -2.930292
 H           13.026143           -0.553135           -3.385045
 H           13.028517            1.830623           -2.774000
 H           11.037171            2.870174           -1.685772
 H            8.737323            2.641411           -0.798430
 H            6.437829            2.421848            0.053973
 H            4.124123            2.215786            0.874691
 H            1.804907            2.002289            1.714093
 H           -0.385126            1.390935           -0.272518
 H           -1.999858            2.809574           -1.495557
 H           -6.283420            4.825229            2.157136
 H           -7.069916            5.859174            0.094811
 H           -6.808020            6.291902           -2.344402
 H           -4.900567            5.314764           -3.583184
 H           -3.236352            3.890691           -2.412840
 H           -5.514409            3.798627            4.259562
 H           -3.903676            2.350901            5.480769
 H           -1.896633            0.916304            5.479159
 H            0.011771           -0.108151            4.289743
 H            0.349300           -2.610099            3.639612
 H           -1.517776           -4.110835            4.246327

