96

 C            5.029611            7.044829           -3.580266
 C            5.484921            7.402690           -2.279759
 C            4.985824            6.765093           -1.170610
 C            4.005363            5.731436           -1.294104
 C            3.554045            5.378015           -2.592243
 C            4.087366            6.058682           -3.733069
 C            2.577170            4.348024           -2.753603
 C            2.064991            3.680759           -1.663868
 C            1.067169            2.625255           -1.808758
 C            0.565471            1.972661           -0.739842
 C            0.997200            2.283851            0.618663
 C            1.976436            3.311074            0.802232
 C            2.417350            3.640463            2.108299
 C            1.889858            2.937911            3.218286
 C            0.942259            1.948207            3.033249
 C            0.483688            1.619062            1.736987
 C           -0.576647            0.590336            1.612996
 C           -1.884108            0.963369            1.606790
 C           -2.956053           -0.012521            1.508722
 C           -4.282198            0.360031            1.504825
 C           -5.326047           -0.616247            1.410107
 C           -6.680768           -0.247063            1.403318
 C           -7.694848           -1.212177            1.309257
 C           -9.080833           -0.847671            1.297571
 C          -10.068890           -1.801376            1.202335
 C          -11.481459           -1.446960            1.185398
 C          -12.439715           -2.399533            1.088528
 C          -12.083360           -3.801328            0.999603
 C          -10.784964           -4.187274            1.011736
 C           -9.711211           -3.208384            1.113310
 C           -8.385976           -3.580724            1.124725
 C           -7.340742           -2.604848            1.221057
 C           -5.987129           -2.974317            1.229992
 C           -4.971915           -2.008481            1.321062
 C           -3.586692           -2.373119            1.327853
 C           -2.598483           -1.417418            1.416211
 C           -1.188597           -1.768027            1.419889
 C           -0.216734           -0.821179            1.512104
 C            1.209535           -1.224718            1.520064
 C            1.877337           -1.298285            2.763948
 C            3.189953           -1.726615            2.838185
 C            3.889718           -2.096111            1.664528
 C            5.253472           -2.565483            1.712672
 C            5.913264           -2.914694            0.575625
 C            5.281691           -2.825087           -0.719923
 C            3.951480           -2.378348           -0.792373
 C            3.285254           -2.284264           -2.070712
 C            3.957962           -2.625886           -3.222168
 C            5.313167           -3.075655           -3.175020
 C            6.005871           -3.422364           -4.378800
 C            7.308764           -3.851706           -4.335579
 C            7.985250           -3.957452           -3.087435
 C            7.340404           -3.631899           -1.919512
 C            5.983599           -3.180069           -1.928618
 C            1.899741           -1.825851           -2.098658
 C            1.240537           -1.493053           -0.969512
 C            1.879275           -1.567093            0.340270
 C            3.238151           -2.010004            0.408848
 C            3.391670            4.692335            2.271531
 C            3.888794            5.357897            1.194428
 C            3.468613            5.037563           -0.149524
 C            2.515273            4.022097           -0.334188
 H            5.441445            7.564586           -4.443797
 H            6.233880            8.186855           -2.182448
 H            5.334338            7.038636           -0.173290
 H            3.730875            5.775652           -4.722566
 H            2.247594            4.099758           -3.761687
 H            0.744327            2.384404           -2.821782
 H           -0.180904            1.184559           -0.856215
 H            2.235739            3.187242            4.220544
 H            0.533414            1.411902            3.889812
 H           -2.166803            2.015247            1.678314
 H           -4.563908            1.410654            1.575592
 H           -6.949092            0.807168            1.471975
 H           -9.334908            0.209861            1.365664
 H          -11.733748           -0.389493            1.252372
 H          -13.498250           -2.144975            1.073807
 H          -12.893240           -4.524969            0.922663
 H          -10.501695           -5.236909            0.945040
 H           -8.103934           -4.631332            1.059643
 H           -5.719081           -4.028835            1.164790
 H           -3.331771           -3.430876            1.262068
 H           -0.933396           -2.826865            1.346594
 H            1.339884           -1.014411            3.669033
 H            3.695334           -1.784989            3.801277
 H            5.736914           -2.632235            2.686946
 H            6.943708           -3.273457            0.618323
 H            3.467927           -2.557750           -4.192507
 H            5.477393           -3.336807           -5.327289
 H            7.841992           -4.115511           -5.247422
 H            9.019033           -4.298656           -3.077211
 H            7.858198           -3.712225           -0.962217
 H            1.417858           -1.763763           -3.074532
 H            0.202954           -1.154793           -0.999487
 H            3.714953            4.937241            3.282850
 H            4.622741            6.156036            1.323988

