96

 C           10.059039           -1.920822           -1.050338
 C            9.640676           -1.508696            0.246442
 C            8.305441           -1.356727            0.528668
 C            7.309796           -1.606001           -0.467079
 C            7.731149           -2.018194           -1.758290
 C            9.128614           -2.169910           -2.027904
 C            6.764788           -2.276326           -2.778487
 C            5.419110           -2.125569           -2.531356
 C            4.416593           -2.383113           -3.561719
 C            3.097931           -2.227794           -3.321612
 C            2.608753           -1.798901           -2.015323
 C            3.558668           -1.540472           -0.978834
 C            3.104087           -1.124552            0.297918
 C            1.717453           -0.974283            0.531641
 C            0.804337           -1.239776           -0.481808
 C           -0.654070           -1.144401           -0.235850
 C           -1.422379           -2.264057           -0.321959
 C           -2.857902           -2.225382           -0.105198
 C           -3.639315           -3.355557           -0.200276
 C           -5.054567           -3.297418            0.012524
 C           -5.859992           -4.443941           -0.077380
 C           -7.245057           -4.376172            0.137741
 C           -8.077639           -5.539524            0.052726
 C           -9.435508           -5.463165            0.267117
 C          -10.295697           -6.635674            0.184211
 C          -11.630047           -6.539857            0.397958
 C          -12.239074           -5.264240            0.717007
 C          -11.486080           -4.141738            0.807855
 C          -10.046973           -4.182847            0.587097
 C           -9.265485           -3.052698            0.673444
 C           -7.850617           -3.108789            0.453274
 C           -7.046378           -1.961996            0.539281
 C           -5.660234           -2.030046            0.326947
 C           -4.828547           -0.867277            0.417911
 C           -3.468601           -0.946849            0.214837
 C           -2.607501            0.219036            0.310172
 C           -1.265990            0.138291            0.097580
 C           -0.434369            1.360620            0.204058
 C            0.219910            1.866886           -0.940096
 C            0.955183            3.046484           -0.863534
 C            1.057340            3.740925            0.382043
 C            0.407226            3.219037            1.528350
 C           -0.339132            2.023657            1.423155
 C            0.520370            3.936173            2.776693
 C            1.237345            5.089176            2.857628
 C            1.914502            5.640546            1.706761
 C            1.815297            4.965168            0.479289
 C            2.470987            5.487927           -0.697322
 C            3.204704            6.649748           -0.612015
 C            3.328809            7.350686            0.627147
 C            4.101823            8.552670            0.708911
 C            4.221839            9.226290            1.898747
 C            3.574443            8.734823            3.067425
 C            2.827919            7.583754            3.013765
 C            2.684747            6.856036            1.791104
 C            2.333334            4.755017           -1.953184
 C            1.626344            3.608261           -2.031502
 C            1.249693           -1.647491           -1.759532
 C            4.081294           -0.873494            1.331334
 C            5.410785           -1.031142            1.090406
 C            5.901247           -1.448345           -0.202940
 C            4.971427           -1.701564           -1.224796
 H           11.123428           -2.032850           -1.249114
 H           10.397402           -1.316764            1.005392
 H            7.982894           -1.039916            1.521898
 H            9.435604           -2.485353           -3.024101
 H            7.117037           -2.594869           -3.759019
 H            4.780980           -2.707923           -4.536726
 H            2.352254           -2.419185           -4.093293
 H            1.368909           -0.648086            1.511447
 H           -0.976510           -3.232789           -0.554910
 H           -3.193184           -4.320681           -0.440076
 H           -5.401175           -5.402953           -0.317524
 H           -7.606491           -6.492489           -0.187024
 H           -9.824238           -7.587945           -0.055500
 H          -12.282377           -7.409618            0.338022
 H          -13.315601           -5.244890            0.879306
 H          -11.929221           -3.175955            1.047593
 H           -9.710560           -2.087258            0.912992
 H           -7.505525           -1.002227            0.775676
 H           -5.300250            0.086791            0.653049
 H           -3.079404            1.172231            0.555588
 H            0.143070            1.322651           -1.881263
 H           -0.841158            1.625773            2.303870
 H            0.012510            3.525600            3.648812
 H            1.316892            5.629541            3.803421
 H            3.706237            7.055110           -1.490289
 H            4.592358            8.918955           -0.191932
 H            4.809451           10.140046            1.968131
 H            3.683324            9.286946            3.999481
 H            2.330923            7.204631            3.908180
 H            2.829580            5.175402           -2.828496
 H            1.531254            3.060870           -2.969771
 H            0.516584           -1.843218           -2.540912
 H            3.719118           -0.552871            2.308176
 H            6.144235           -0.842819            1.877482

