68

 C           -6.689234            4.354458            1.226578
 C           -6.291727            3.795768            0.037962
 C           -5.112715            2.987230           -0.024434
 C           -4.673797            2.389208           -1.249032
 C           -3.527242            1.639099           -1.289436
 C           -2.750301            1.447362           -0.103460
 C           -1.478225            0.692300           -0.182059
 C           -0.300404            1.342181            0.020509
 C            0.974296            0.648055           -0.028146
 C            2.166984            1.301942            0.188518
 C            3.413679            0.598063            0.154959
 C            4.634030            1.254122            0.382139
 C            5.849696            0.554252            0.350574
 C            7.101684            1.213216            0.579348
 C            8.290409            0.519813            0.542421
 C            9.571199            1.175683            0.769794
 C           10.730957            0.476824            0.728373
 C           10.727916           -0.946556            0.456501
 C            9.565299           -1.606946            0.238192
 C            8.287013           -0.908893            0.269442
 C            7.094994           -1.561840            0.049347
 C            5.845631           -0.860014            0.081012
 C            4.625640           -1.515775           -0.144909
 C            3.408592           -0.815986           -0.114220
 C            2.156664           -1.473544           -0.343413
 C            0.968341           -0.777687           -0.305412
 C           -0.311964           -1.425747           -0.532300
 C           -1.484851           -0.738033           -0.475747
 C           -2.764982           -1.447426           -0.705029
 C           -3.000022           -2.036303           -1.988868
 C           -4.148640           -2.745100           -2.226181
 C           -5.124890           -2.918336           -1.193785
 C           -6.316181           -3.681952           -1.406577
 C           -7.229148           -3.840618           -0.394580
 C           -7.005177           -3.240381            0.879363
 C           -5.873856           -2.498738            1.109118
 C           -4.899294           -2.324023            0.074974
 C           -3.700097           -1.577320            0.296652
 C           -3.161214            1.994107            1.091801
 C           -4.355618            2.776263            1.157041
 C           -4.798787            3.364088            2.384829
 C           -5.934868            4.132762            2.416072
 H           -7.583243            4.973043            1.282711
 H           -6.861216            3.958143           -0.875743
 H           -5.272026            2.542000           -2.146623
 H           -3.186186            1.176804           -2.215510
 H           -0.279864            2.413572            0.227209
 H            2.183826            2.372471            0.392399
 H            4.636124            2.324626            0.587291
 H            7.089662            2.283697            0.783505
 H            9.558207            2.245830            0.973465
 H           11.693768            0.957161            0.896869
 H           11.688712           -1.458846            0.435376
 H            9.548510           -2.676716            0.033026
 H            7.078565           -2.632133           -0.155337
 H            4.621911           -2.586685           -0.347485
 H            2.166211           -2.543944           -0.548261
 H           -0.300206           -2.496199           -0.744134
 H           -2.248959           -1.906355           -2.767158
 H           -4.338202           -3.190874           -3.201782
 H           -6.478228           -4.134471           -2.383446
 H           -8.135885           -4.423876           -0.545242
 H           -7.748497           -3.382971            1.661992
 H           -5.696542           -2.031686            2.076760
 H           -3.539727           -1.116099            1.271269
 H           -2.581908            1.844266            2.001927
 H           -4.216153            3.188602            3.287526
 H           -6.278544            4.585064            3.344863

