80

 C           -7.273150           -5.694779            1.022334
 C           -6.551237           -5.287243           -0.058642
 C           -5.396533           -4.433303            0.103805
 C           -4.643345           -3.997324           -0.995840
 C           -3.530822           -3.162651           -0.819232
 C           -2.743913           -2.700126           -1.939717
 C           -1.655291           -1.906015           -1.749069
 C           -1.267333           -1.502753           -0.417421
 C           -0.041557           -0.684690           -0.266750
 C            1.163611           -1.208350           -0.619606
 C            2.397432           -0.454710           -0.478485
 C            3.619146           -0.983183           -0.832076
 C            4.826140           -0.225831           -0.682615
 C            6.076644           -0.755290           -1.038195
 C            7.252674           -0.003773           -0.887707
 C            8.534999           -0.533564           -1.245872
 C            9.683133            0.211617           -1.095179
 C           10.993703           -0.312403           -1.454684
 C           12.111838            0.436647           -1.299366
 C           12.033328            1.783099           -0.769672
 C           10.840062            2.320326           -0.419078
 C            9.604280            1.563125           -0.563422
 C            8.381979            2.091121           -0.212490
 C            7.174793            1.333396           -0.360185
 C            5.924335            1.862597           -0.004334
 C            4.748406            1.110853           -0.154125
 C            3.466826            1.639805            0.207112
 C            2.319145            0.893629            0.056224
 C            1.011065            1.412763            0.416312
 C           -0.120808            0.672902            0.266590
 C           -1.430969            1.255201            0.639449
 C           -1.653894            1.590445            2.026649
 C           -2.820751            2.172005            2.416693
 C           -3.857274            2.473795            1.455961
 C           -5.057397            3.089905            1.837515
 C           -6.052766            3.372710            0.891122
 C           -7.299983            3.999087            1.266542
 C           -8.256501            4.260465            0.332534
 C           -8.040258            3.922303           -1.048904
 C           -6.877411            3.332462           -1.443579
 C           -5.838715            3.031365           -0.484230
 C           -4.637517            2.416094           -0.865550
 C           -3.641987            2.131849            0.081128
 C           -2.395447            1.508207           -0.295129
 C           -1.998352           -1.904338            0.665239
 C           -3.154592           -2.753051            0.501453
 C           -3.908078           -3.189828            1.601169
 C           -5.022182           -4.023167            1.425048
 C           -5.812476           -4.483636            2.544485
 C           -6.895721           -5.286257            2.349078
 H           -8.147456           -6.334052            0.910700
 H           -6.824381           -5.589651           -1.068489
 H           -4.926745           -4.311109           -1.999752
 H           -3.049894           -3.008288           -2.938855
 H           -1.053700           -1.556099           -2.587277
 H            1.239646           -2.222642           -1.015196
 H            3.690856           -1.993564           -1.234059
 H            6.134630           -1.767670           -1.437457
 H            8.579580           -1.547511           -1.642700
 H           11.038144           -1.325951           -1.851497
 H           13.096128            0.054455           -1.565115
 H           12.962834            2.340584           -0.665724
 H           10.766341            3.331167           -0.019612
 H            8.308348            3.102383            0.187020
 H            5.864523            2.874803            0.395244
 H            3.421177            2.652653            0.606835
 H            0.967581            2.430224            0.808804
 H           -0.864890            1.363545            2.742846
 H           -3.003927            2.425935            3.460219
 H           -5.219305            3.352263            2.882351
 H           -7.449326            4.250996            2.315446
 H           -9.201566            4.727394            0.605459
 H           -8.830071            4.150814           -1.762900
 H           -6.701149            3.072712           -2.486476
 H           -4.475828            2.152921           -1.910455
 H           -2.244929            1.246770           -1.342697
 H           -1.724398           -1.594542            1.673975
 H           -3.624848           -2.875032            2.605170
 H           -5.515614           -4.168436            3.543884
 H           -7.499341           -5.636479            3.185023

