100

 C           -4.452357           -2.134748           -6.603235
 C           -3.278001           -1.284002           -6.629321
 C           -2.599395           -1.005957           -5.491363
 C           -3.022742           -1.556134           -4.209333
 C           -2.325594           -1.299137           -3.053676
 C           -2.772502           -1.837581           -1.799848
 N           -2.070040           -1.577297           -0.668469
 C           -2.531305           -2.082054            0.508277
 C           -3.737858           -2.891004            0.540908
 N           -4.438922           -3.164635           -0.595864
 C           -3.977684           -2.653223           -1.766538
 C           -4.672793           -2.918552           -2.993515
 C           -4.216738           -2.395197           -4.179900
 C           -4.901758           -2.659759           -5.439181
 C           -4.193339           -3.420216            1.789865
 C           -3.481553           -3.189238            2.943981
 C           -3.934503           -3.737131            4.216588
 C           -3.233675           -3.534729            5.356995
 C           -2.007091           -2.765270            5.336020
 C           -1.548476           -2.223580            4.182397
 C           -2.261263           -2.393846            2.921565
 C           -1.814967           -1.829940            1.736665
 C           -0.594463           -0.986311            1.692401
 C            0.629458           -1.566280            1.821474
 C            1.851787           -0.780857            1.827900
 C            3.092678           -1.362319            1.962929
 C            4.286045           -0.568758            1.976994
 C            5.556274           -1.149526            2.113006
 C            6.717535           -0.360438            2.127945
 C            8.019497           -0.941297            2.267893
 C            9.152738           -0.158898            2.282139
 C           10.483241           -0.734138            2.422882
 C           11.587044            0.051493            2.428509
 C           11.472080            1.490143            2.299523
 C           10.258389            2.078326            2.171083
 C            9.037514            1.284719            2.152817
 C            7.795474            1.863380            2.016192
 C            6.603998            1.068488            1.999060
 C            5.333696            1.649247            1.859461
 C            4.173262            0.860660            1.847727
 C            2.872092            1.443454            1.707144
 C            1.739094            0.661547            1.693558
 C            0.414662            1.235267            1.529121
 C           -0.704379            0.462984            1.518244
 C           -2.030605            1.082805            1.283243
 C           -2.983938            1.197127            2.277817
 C           -2.708262            0.819274            3.658701
 C           -3.655606            0.912496            4.621447
 C           -4.984610            1.397505            4.308018
 C           -5.296260            1.781060            3.048106
 C           -4.313973            1.711909            1.972683
 C           -4.636242            2.112109            0.698869
 C           -3.655543            2.069539           -0.345509
 N           -3.988022            2.509027           -1.587834
 C           -3.025436            2.485694           -2.550961
 C           -3.330151            2.929204           -3.879261
 C           -2.359484            2.925245           -4.854502
 C           -2.644863            3.376557           -6.210269
 C           -1.684526            3.374761           -7.164985
 C           -0.342220            2.918183           -6.863221
 C           -0.020601            2.485682           -5.620743
 C           -1.008903            2.469579           -4.550138
 C           -0.688119            2.041992           -3.282284
 C           -1.680260            2.030762           -2.247068
 N           -1.349529            1.593418           -1.000768
 C           -2.317067            1.577261           -0.048780
 H           -4.955507           -2.330587           -7.549524
 H           -2.968960           -0.879385           -7.592276
 H           -1.720432           -0.359208           -5.492969
 H           -1.421836           -0.681883           -3.044428
 H           -5.565809           -3.545101           -2.944678
 H           -5.786059           -3.295860           -5.402762
 H           -5.113619           -4.009277            1.787084
 H           -4.858552           -4.315614            4.209285
 H           -3.564230           -3.940260            6.312256
 H           -1.470057           -2.643104            6.276032
 H           -0.620804           -1.647338            4.164681
 H            0.729454           -2.648339            1.919619
 H            3.192058           -2.443209            2.058949
 H            5.643133           -2.231654            2.207309
 H            8.091622           -2.024312            2.363187
 H           10.553561           -1.816581            2.522426
 H           12.586382           -0.368631            2.530583
 H           12.391148            2.073862            2.311228
 H           10.155594            3.158701            2.077171
 H            7.694223            2.943899            1.918180
 H            5.247118            2.730736            1.756812
 H            2.800163            2.526226            1.605211
 H            0.349904            2.315112            1.383113
 H           -1.702046            0.463447            3.888322
 H           -3.449936            0.628989            5.652835
 H           -5.712590            1.443122            5.117085
 H           -6.288230            2.154372            2.793363
 H           -5.633751            2.476407            0.441923
 H           -4.349839            3.265336           -4.081255
 H           -3.659336            3.715956           -6.420737
 H           -1.887439            3.714841           -8.179899
 H            0.391084            2.938531           -7.668674
 H            0.985155            2.141026           -5.378967
 H            0.317588            1.700431           -3.023866

