100

 C            2.492074           -6.712500           -5.224847
 C            3.214116           -5.466657           -5.391750
 C            2.784590           -4.331794           -4.790372
 C            1.590405           -4.327878           -3.955440
 C            1.150850           -3.180501           -3.336840
 C           -0.016302           -3.204856           -2.504194
 N           -0.422326           -2.066172           -1.877548
 C           -1.511161           -2.144169           -1.069355
 C           -1.932049           -0.989573           -0.326306
 C           -3.019437           -1.050309            0.511890
 C           -3.804699           -2.277978            0.599739
 C           -3.418944           -3.404787           -0.086992
 C           -2.250541           -3.389090           -0.919441
 N           -1.853943           -4.522826           -1.555244
 C           -0.738238           -4.454988           -2.333744
 C           -0.261959           -5.632310           -2.999355
 C            0.866708           -5.581371           -3.784135
 C            1.374268           -6.767114           -4.462486
 C           -5.005296           -2.279101            1.425744
 C           -5.369784           -1.181889            2.129107
 C           -4.554975            0.013906            2.108396
 C           -3.425992            0.078934            1.354694
 C           -2.559882            1.281758            1.406263
 C           -2.556267            2.190343            0.395957
 C           -1.704751            3.368380            0.433615
 C           -1.710457            4.304269           -0.576645
 C           -0.872895            5.465618           -0.517042
 C           -0.897468            6.444138           -1.523266
 C           -0.088328            7.588292           -1.442745
 C           -0.128797            8.609931           -2.446636
 C            0.660455            9.734286           -2.353430
 C            0.618548           10.789071           -3.356942
 C            1.406038           11.886357           -3.250457
 C            2.315370           12.039017           -2.132430
 C            2.392227           11.090144           -1.168556
 C            1.566416            9.891771           -1.226545
 C            1.622833            8.920641           -0.252130
 C            0.799307            7.750055           -0.321048
 C            0.831697            6.766484            0.679652
 C            0.005593            5.633707            0.610628
 C            0.003027            4.641789            1.644453
 C           -0.828567            3.546218            1.578887
 C           -0.871731            2.552296            2.638557
 C           -1.700735            1.477637            2.573529
 C           -1.760145            0.511090            3.698246
 C           -2.476699            0.813174            4.813665
 C           -2.556977           -0.114761            5.920216
 C           -1.925685           -1.311585            5.869006
 C           -1.144184           -1.699033            4.702577
 C           -0.510304           -2.920127            4.648280
 C            0.248309           -3.297524            3.493005
 N            0.861835           -4.513746            3.444252
 C            1.542914           -4.834737            2.312486
 C            2.218562           -6.097502            2.214527
 C            2.890266           -6.442822            1.065910
 C            3.603376           -7.709402            0.953195
 C            4.249041           -8.049613           -0.187250
 C            4.238565           -7.167009           -1.338049
 C            3.600504           -5.974274           -1.288785
 C            2.910450           -5.539504           -0.080317
 C            2.291980           -4.314858           -0.009892
 C            1.603853           -3.914870            1.184976
 N            1.017428           -2.691917            1.245232
 C            0.344483           -2.365524            2.382699
 C           -0.297563           -1.087519            2.481926
 C           -1.043754           -0.761661            3.590173
 H            2.878407           -7.593535           -5.735779
 H            4.105700           -5.479044           -6.017746
 H            3.312619           -3.385826           -4.912437
 H            1.670332           -2.225982           -3.452455
 H           -1.337305           -0.077577           -0.444015
 H           -3.979440           -4.340274           -0.019887
 H           -0.822324           -6.559098           -2.854062
 H            0.817915           -7.695387           -4.329956
 H           -5.593667           -3.196437            1.451767
 H           -6.270741           -1.167862            2.741957
 H           -4.867142            0.850724            2.733602
 H           -3.195341            2.060063           -0.479332
 H           -2.357941            4.180668           -1.444847
 H           -1.559989            6.316030           -2.379112
 H           -0.807306            8.476691           -3.288882
 H           -0.070194           10.660541           -4.191057
 H            1.381418           12.681296           -3.994336
 H            2.928644           12.938346           -2.099019
 H            3.070623           11.191397           -0.322156
 H            2.297099            9.025722            0.597589
 H            1.505799            6.887071            1.527580
 H            0.674697            4.779453            2.491923
 H           -0.214505            2.703846            3.496656
 H           -3.013532            1.757401            4.904039
 H           -3.143804            0.185082            6.788102
 H           -1.981114           -2.022414            6.693469
 H           -0.569193           -3.635469            5.471755
 H            2.176166           -6.762403            3.079977
 H            3.597080           -8.365402            1.823562
 H            4.791273           -8.990188           -0.277312
 H            4.756859           -7.500456           -2.236054
 H            3.573173           -5.303324           -2.149670
 H            2.297991           -3.612802           -0.849196
 H           -0.177976           -0.396113            1.640767

