102

 C           -2.759786           -1.170348            1.847049
 C           -1.520286           -0.696344            1.549588
 C           -0.696691           -1.320787            0.528155
 C            0.651205           -0.756324            0.281490
 C            1.760625           -1.469348            0.611565
 C            3.098587           -0.949049            0.385360
 C            4.225442           -1.662195            0.728314
 C            5.536998           -1.135636            0.491097
 C            6.693885           -1.850892            0.837301
 C            7.972351           -1.321596            0.600106
 C            9.160790           -2.036364            0.959583
 C           10.410563           -1.506871            0.726893
 C           11.627093           -2.212253            1.106350
 C           12.848276           -1.680393            0.860930
 C           12.977619           -0.394695            0.205002
 C           11.878729            0.308821           -0.160945
 C           10.539724           -0.206054            0.089873
 C            9.410122            0.500304           -0.258559
 C            8.100219           -0.026326           -0.014318
 C            6.943582            0.688929           -0.360387
 C            5.665722            0.161630           -0.119245
 C            4.479869            0.886912           -0.464947
 C            3.229537            0.364146           -0.222866
 C            2.016569            1.091965           -0.553731
 C            0.783410            0.571772           -0.313390
 C           -0.431252            1.348575           -0.652376
 C           -0.690229            2.535489           -0.025548
 C           -1.859997            3.273103           -0.398265
 C           -2.401302            4.481127            0.016306
 C           -2.038513            5.498612            0.987185
 C           -3.035990            6.244464            1.641882
 C           -2.677189            7.211771            2.582120
 C           -1.328847            7.444885            2.873468
 C           -0.335433            6.708427            2.219176
 C           -0.683484            5.738698            1.276830
 O           -3.587235            4.731836           -0.691449
 C           -3.784985            3.654722           -1.566755
 C           -4.958632            3.753983           -2.416442
 C           -5.625476            2.586228           -2.827491
 C           -6.729727            2.680317           -3.676567
 C           -7.177480            3.930863           -4.115196
 C           -6.526885            5.094765           -3.691270
 C           -5.421612            5.011746           -2.842987
 C           -2.753347            2.739792           -1.420443
 C           -2.438416            1.491786           -2.054599
 C           -1.316079            0.822543           -1.677196
 C           -1.138102           -2.402474           -0.181387
 C           -2.439412           -2.930425            0.101030
 C           -3.184145           -3.973802           -0.429270
 C           -2.973616           -4.969383           -1.465080
 C           -1.676690           -5.455140           -1.712871
 C           -1.469046           -6.403396           -2.715893
 C           -2.545546           -6.873743           -3.475527
 C           -3.837670           -6.399474           -3.224366
 C           -4.055995           -5.450848           -2.223489
 O           -4.427880           -4.041065            0.219193
 C           -4.448695           -3.023413            1.183946
 C           -5.652473           -2.957349            1.993743
 C           -5.569126           -2.505231            3.323849
 C           -6.722405           -2.430137            4.105997
 C           -7.960579           -2.804779            3.573282
 C           -8.043721           -3.265446            2.255001
 C           -6.895706           -3.343402            1.463628
 C           -3.259102           -2.313104            1.137251
 H           -3.395594           -0.703129            2.597084
 H           -1.108997            0.173827            2.061793
 H            1.676350           -2.458359            1.063980
 H            4.140018           -2.645733            1.189485
 H            6.598590           -2.833312            1.299095
 H            9.051193           -3.014816            1.426289
 H           11.513226           -3.178502            1.596426
 H           13.764051           -2.196343            1.146157
 H           13.983495           -0.021279            0.019252
 H           11.959973            1.276619           -0.654264
 H            9.490831            1.479749           -0.729218
 H            7.038661            1.670458           -0.824074
 H            4.593201            1.867710           -0.925930
 H            2.132724            2.077153           -1.008161
 H           -0.041294            2.931727            0.752913
 H           -4.085732            6.061763            1.409465
 H           -3.450111            7.786215            3.091080
 H           -1.052607            8.200933            3.606355
 H            0.714168            6.894293            2.442939
 H            0.092553            5.176209            0.758939
 H           -5.286057            1.612283           -2.475420
 H           -7.245850            1.775831           -3.995426
 H           -8.033486            3.998324           -4.784062
 H           -6.882222            6.068771           -4.024546
 H           -4.911216            5.915517           -2.508009
 H           -3.104587            1.115123           -2.828768
 H           -1.047097           -0.133374           -2.127997
 H           -0.538333           -2.868469           -0.960203
 H           -0.837571           -5.097951           -1.116512
 H           -0.464944           -6.781016           -2.904957
 H           -2.377511           -7.608383           -4.261112
 H           -4.675968           -6.771308           -3.811839
 H           -5.061390           -5.079132           -2.024638
 H           -4.603881           -2.224125            3.744248
 H           -6.656256           -2.082422            5.136173
 H           -8.858418           -2.738039            4.185196
 H           -9.006778           -3.564654            1.844267
 H           -6.955472           -3.702685            0.436212

