102

 C           -4.276160           -0.658785            2.315988
 C           -4.681443           -1.945758            2.138785
 C           -3.847228           -2.833584            1.381674
 C           -3.971058           -4.164777            1.018267
 C           -4.953219           -5.209043            1.250973
 C           -5.235094           -6.151875            0.246707
 C           -6.201842           -7.134372            0.467330
 C           -6.886144           -7.186569            1.686285
 C           -6.597019           -6.257533            2.691339
 C           -5.632255           -5.270299            2.480541
 O           -2.875763           -4.538700            0.225870
 C           -2.051386           -3.412556            0.098287
 C           -0.862865           -3.636276           -0.712696
 C           -0.054849           -4.763867           -0.489066
 C            1.095352           -4.957363           -1.257644
 C            1.440823           -4.035602           -2.251237
 C            0.629281           -2.920199           -2.483890
 C           -0.523223           -2.719081           -1.721948
 C           -2.600218           -2.348331            0.796765
 C           -2.202300           -0.982272            1.036870
 C           -0.906693           -0.496056            0.513053
 C            0.253112           -1.077227            0.922601
 C            1.545553           -0.642727            0.421462
 C            2.720534           -1.232956            0.829645
 C            3.985676           -0.795861            0.318276
 C            5.189207           -1.390163            0.726871
 C            6.423259           -0.951259            0.221276
 C            7.659135           -1.543572            0.637618
 C            8.864537           -1.108593            0.133229
 C           10.130275           -1.693834            0.552901
 C           11.305684           -1.258556            0.038418
 C           11.334137           -0.197647           -0.948041
 C           10.186418            0.386079           -1.369432
 C            8.894081           -0.034878           -0.846661
 C            7.717605            0.552748           -1.255245
 C            6.453686            0.121495           -0.737649
 C            5.249523            0.717320           -1.144881
 C            4.016589            0.280286           -0.637705
 C            2.781266            0.878483           -1.048727
 C            1.576728            0.441750           -0.545080
 C            0.315082            1.040722           -0.944461
 C           -0.873465            0.611025           -0.441292
 C           -2.133150            1.262445           -0.863528
 C           -3.109200            0.574790           -1.528911
 C           -4.323310            1.216533           -1.978033
 C           -4.544855            2.543806           -1.774655
 C           -3.547527            3.312099           -1.087155
 C           -3.470229            4.645994           -0.720632
 C           -4.322818            5.810189           -0.885205
 C           -5.074671            5.965908           -2.062962
 C           -5.915062            7.071571           -2.207903
 C           -6.007153            8.025293           -1.188718
 C           -5.249638            7.877992           -0.021904
 C           -4.406267            6.776428            0.132852
 O           -2.279064            4.870490           -0.014770
 C           -1.600032            3.646514            0.054185
 C           -0.334942            3.709121            0.772531
 C           -0.039175            2.744503            1.750914
 C            1.184028            2.788871            2.422563
 C            2.110946            3.795068            2.130402
 C            1.811380            4.764566            1.167852
 C            0.590903            4.727498            0.489523
 C           -2.332754            2.666469           -0.597237
 C           -3.028084           -0.176896            1.770381
 H           -4.884206            0.051937            2.874844
 H           -5.620173           -2.323649            2.537193
 H           -4.695616           -6.107233           -0.700002
 H           -6.424897           -7.859775           -0.313734
 H           -7.642750           -7.951099            1.853218
 H           -7.124346           -6.304617            3.643007
 H           -5.397959           -4.555390            3.268564
 H           -0.329598           -5.481798            0.283308
 H            1.725344           -5.827685           -1.081052
 H            2.342716           -4.184370           -2.843196
 H            0.898142           -2.202523           -3.257998
 H           -1.154665           -1.848116           -1.901147
 H            0.243444           -1.906468            1.632859
 H            2.710201           -2.050743            1.549972
 H            5.165485           -2.206860            1.447971
 H            7.622000           -2.351041            1.368376
 H           10.092833           -2.490760            1.294572
 H           12.257652           -1.688022            0.346597
 H           12.305389            0.108419           -1.333587
 H           10.191537            1.184292           -2.110691
 H            7.725273            1.361245           -1.985810
 H            5.272699            1.533402           -1.866722
 H            2.818363            1.694032           -1.770729
 H            0.355477            1.867514           -1.656502
 H           -3.002301           -0.491544           -1.731287
 H           -5.058799            0.593463           -2.485823
 H           -5.454919            3.041793           -2.101014
 H           -4.993041            5.230667           -2.862721
 H           -6.498700            7.192006           -3.119388
 H           -6.667522            8.882889           -1.304082
 H           -5.319147            8.622462            0.769972
 H           -3.810310            6.656830            1.038289
 H           -0.760860            1.958528            1.976457
 H            1.417448            2.033391            3.171779
 H            3.066904            3.821165            2.651460
 H            2.532146            5.549592            0.944720
 H            0.352223            5.482898           -0.258732
 H           -2.770114            0.866374            1.956386

