96

 C           -5.931265           -2.178223           -4.093630
 C           -4.768723           -1.431142           -4.547121
 C           -3.731366           -1.169622           -3.720654
 C           -3.762803           -1.629638           -2.335028
 N           -2.749302           -1.366460           -1.523054
 C           -2.820655           -1.809323           -0.200234
 C           -3.983524           -2.548765            0.250923
 N           -5.041372           -2.820722           -0.623187
 C           -4.949951           -2.383526           -1.871474
 C           -6.026251           -2.636192           -2.825100
 C           -4.073526           -3.003973            1.571352
 C           -3.006869           -2.760914            2.450437
 N           -3.112688           -3.215301            3.766182
 C           -2.089719           -3.002899            4.585835
 C           -2.152341           -3.443916            5.975598
 C           -1.097173           -3.247063            6.798759
 C            0.117828           -2.599427            6.332846
 C            0.239835           -2.160638            5.059371
 C           -0.862251           -2.327963            4.116573
 N           -0.747680           -1.881895            2.871688
 C           -1.822884           -2.055937            2.001174
 C           -1.750665           -1.538211            0.681641
 C           -0.569203           -0.750547            0.255700
 C            0.652036           -1.350626            0.218006
 C            1.853731           -0.623266           -0.151829
 C            3.091030           -1.226766           -0.179849
 C            4.268249           -0.488881           -0.531229
 C            5.534320           -1.092669           -0.558777
 C            6.682164           -0.357423           -0.896323
 C            7.980330           -0.961671           -0.924350
 C            9.101391           -0.230367           -1.249005
 C           10.428574           -0.828964           -1.277461
 C           11.520342           -0.093031           -1.596983
 C           11.395275            1.313424           -1.921643
 C           10.183998            1.920658           -1.911263
 C            8.975898            1.180874           -1.574139
 C            7.736015            1.780268           -1.556685
 C            6.557555            1.039007           -1.220519
 C            5.289496            1.641803           -1.198204
 C            4.143012            0.907433           -0.859957
 C            2.844514            1.512735           -0.829382
 C            1.727098            0.784759           -0.487098
 C            0.403082            1.380504           -0.452278
 C           -0.699607            0.662119           -0.105405
 C           -2.025509            1.324453           -0.110686
 C           -2.580874            1.802713           -1.325215
 N           -1.841484            1.717306           -2.504541
 C           -2.406146            2.120681           -3.635796
 C           -1.666770            2.043206           -4.892486
 C           -2.246768            2.439484           -6.048112
 C           -3.606174            2.953435           -6.077085
 C           -4.344813            3.060617           -4.949093
 C           -3.782328            2.657782           -3.663991
 N           -4.493228            2.785150           -2.549903
 C           -3.912362            2.375078           -1.348193
 C           -4.646426            2.531669           -0.162608
 C           -4.075762            2.125352            1.049508
 N           -4.800054            2.321516            2.230103
 C           -4.249904            1.935527            3.373187
 C           -4.958321            2.122391            4.636083
 C           -4.389886            1.729368            5.798307
 C           -3.073402            1.111949            5.830707
 C           -2.360810            0.909649            4.699991
 C           -2.907440            1.311769            3.406832
 N           -2.206517            1.118150            2.299222
 C           -2.761687            1.513856            1.080352
 H           -6.726264           -2.354585           -4.820023
 H           -4.767990           -1.088094           -5.582643
 H           -2.842548           -0.615479           -4.035599
 H           -6.888274           -3.198465           -2.458913
 H           -4.962597           -3.544317            1.914424
 H           -3.075860           -3.929359            6.299286
 H           -1.123688           -3.570779            7.840491
 H            0.929429           -2.482630            7.052614
 H            1.141618           -1.670953            4.682312
 H            0.767800           -2.402215            0.486154
 H            3.199533           -2.281889            0.069468
 H            5.629004           -2.149922           -0.312760
 H            8.060121           -2.020682           -0.680708
 H           10.506127           -1.887347           -1.031922
 H           12.517077           -0.530536           -1.619980
 H           12.304617            1.857199           -2.172128
 H           10.073862            2.976939           -2.153357
 H            7.627037            2.837087           -1.798505
 H            5.194688            2.698543           -1.446284
 H            2.761719            2.568716           -1.084918
 H            0.320958            2.432255           -0.731796
 H           -0.646042            1.654948           -4.841604
 H           -1.711798            2.387685           -6.997561
 H           -4.006983            3.252921           -7.046778
 H           -5.367175            3.445565           -4.942506
 H           -5.650963            2.968130           -0.186084
 H           -5.946509            2.585156            4.584427
 H           -4.902784            1.862479            6.752251
 H           -2.684505            0.816695            6.806172
 H           -1.368398            0.449725            4.693259

