96

 C           11.280612           -6.985397           -0.531305
 C           10.089457           -6.918912            0.104871
 C            9.163822           -5.825837           -0.178961
 N            7.996152           -5.760271            0.447561
 C            7.150660           -4.688470            0.150148
 C            5.911360           -4.594545            0.802582
 C            5.066458           -3.510525            0.518664
 N            3.838558           -3.412794            1.178960
 C            3.067787           -2.367227            0.910062
 C            1.783436           -2.201860            1.586316
 C            1.018450           -1.112807            1.352772
 C            1.438399           -0.076381            0.415440
 C            0.602853            1.137689            0.268899
 C            1.165538            2.353423            0.518139
 C            0.420091            3.590144            0.371813
 C            0.987946            4.819494            0.629671
 C            0.240325            6.028351            0.462309
 C            0.805434            7.286909            0.730851
 C            0.066510            8.465102            0.555121
 C            0.627749            9.754344            0.836699
 C           -0.100746           10.906266            0.648403
 C            0.454939           12.223270            0.930154
 C           -0.275591           13.346460            0.732030
 C           -1.634720           13.267928            0.234185
 C           -2.202247           12.069616           -0.042208
 C           -1.466902           10.827124            0.152696
 C           -2.028131            9.600073           -0.116284
 C           -1.290966            8.385827            0.079985
 C           -1.858734            7.130574           -0.178542
 C           -1.122313            5.947973            0.007209
 C           -1.694637            4.660631           -0.244742
 C           -0.959727            3.507909           -0.067849
 C           -1.525247            2.191624           -0.301363
 C           -0.795893            1.052918           -0.134876
 C           -1.450994           -0.254902           -0.367745
 C           -0.902048           -1.146346           -1.384167
 C           -1.502143           -2.317397           -1.691263
 C           -2.732268           -2.722374           -1.015120
 N           -3.342093           -3.851819           -1.349809
 C           -4.524714           -4.182504           -0.682263
 C           -5.201763           -5.360889           -1.032331
 C           -6.394093           -5.690897           -0.368911
 N           -7.073325           -6.857115           -0.730243
 C           -8.199376           -7.146506           -0.090912
 C           -8.954455           -8.346969           -0.438880
 C          -10.102778           -8.641613            0.210749
 C          -10.616054           -7.787950            1.269850
 C           -9.968676           -6.661436            1.644349
 C           -8.727097           -6.271657            0.981842
 N           -8.099329           -5.158760            1.339789
 C           -6.915850           -4.829183            0.673712
 C           -6.238827           -3.650910            1.024240
 C           -5.051728           -3.316264            0.354271
 N           -4.390365           -2.133070            0.692066
 C           -3.276188           -1.832247            0.035627
 C           -2.572156           -0.590862            0.322842
 C            2.602133           -0.192014           -0.277020
 C            3.482458           -1.331389           -0.063178
 N            4.638232           -1.410880           -0.711881
 C            5.468994           -2.500713           -0.440860
 C            6.704185           -2.599609           -1.100281
 C            7.549690           -3.682697           -0.814777
 N            8.781146           -3.776860           -1.468755
 C            9.567584           -4.803717           -1.172383
 C           10.865873           -4.948676           -1.825096
 C           11.673067           -5.987285           -1.512925
 H           11.986807           -7.792371           -0.328717
 H            9.769411           -7.657728            0.843510
 H            5.608628           -5.357784            1.528110
 H            1.487764           -2.991734            2.282479
 H            0.060822           -0.970266            1.860106
 H            2.206375            2.434419            0.840590
 H            2.022519            4.894071            0.965699
 H            1.835898            7.346782            1.081195
 H            1.651658            9.798977            1.207459
 H            1.477080           12.266437            1.304767
 H            0.130700           14.335832            0.938153
 H           -2.176046           14.202468            0.093100
 H           -3.222310           11.994834           -0.417438
 H           -3.050114            9.526089           -0.487591
 H           -2.889036            7.069398           -0.529037
 H           -2.731064            4.612658           -0.579758
 H           -2.569255            2.147454           -0.620427
 H            0.012857           -0.825691           -1.888982
 H           -1.108092           -3.000948           -2.448510
 H           -4.806115           -6.014949           -1.817331
 H           -8.546418           -8.973168           -1.235975
 H          -10.682728           -9.531794           -0.038879
 H          -11.546209           -8.093812            1.751825
 H          -10.332579           -6.004555            2.437992
 H           -6.634732           -2.997795            1.809792
 H           -2.997440            0.048428            1.101638
 H            2.933047            0.557684           -1.001259
 H            7.006780           -1.837699           -1.827131
 H           11.137143           -4.186978           -2.560007
 H           12.647325           -6.110872           -1.989123

