100

 C            5.921619           -9.877030            2.268871
 C            6.597908          -10.046263            0.996044
 C            6.529132           -9.095927            0.035978
 C            5.760597           -7.871833            0.259019
 N            5.711339           -6.961685           -0.711242
 C            4.973627           -5.795860           -0.507106
 C            4.924378           -4.848719           -1.546095
 C            4.190893           -3.667112           -1.387844
 C            4.101087           -2.670187           -2.415179
 C            3.369480           -1.525483           -2.208229
 C            3.235759           -0.472811           -3.201177
 C            2.513673            0.642257           -2.942850
 C            1.846251            0.821149           -1.660377
 C            1.101561            2.083588           -1.443452
 C            1.767886            3.266854           -1.368407
 C            1.071351            4.520411           -1.132975
 C            1.741991            5.719411           -1.027328
 C            1.039135            6.942239           -0.777474
 C            1.713540            8.167385           -0.646121
 C            1.013952            9.356930           -0.393344
 C            1.690171           10.613061           -0.252368
 C            0.993604           11.775799           -0.012110
 C            1.663995           13.061818            0.124468
 C            0.959552           14.196274            0.352361
 C           -0.484168           14.160131            0.473870
 C           -1.158391           12.990797            0.361144
 C           -0.455710           11.740238            0.108925
 C           -1.124747           10.544311           -0.017783
 C           -0.420409            9.322540           -0.272821
 C           -1.094887            8.100187           -0.406681
 C           -0.394183            6.908326           -0.652449
 C           -1.071647            5.652837           -0.773474
 C           -0.374206            4.486242           -0.997261
 C           -1.043294            3.200256           -1.088635
 C           -0.349930            2.048551           -1.293976
 C           -1.067908            0.754051           -1.352137
 C           -1.714616            0.273144           -0.259478
 C           -2.453144           -0.983053           -0.327428
 N           -3.072510           -1.418634            0.767788
 C           -3.788841           -2.613189            0.708799
 C           -4.426222           -3.065754            1.878468
 C           -5.157401           -4.259231            1.864925
 C           -5.817676           -4.773401            3.029648
 C           -6.517620           -5.954384            2.965523
 C           -7.205434           -6.537372            4.105330
 C           -7.874532           -7.709218            3.988110
 C           -7.929086           -8.414556            2.721113
 C           -7.316164           -7.922758            1.620061
 C           -6.573574           -6.664396            1.684967
 N           -5.976668           -6.215278            0.582846
 C           -5.259758           -5.020552            0.641682
 C           -4.622227           -4.567016           -0.528109
 C           -3.883729           -3.378288           -0.512777
 C           -3.200358           -2.877351           -1.670862
 C           -2.488241           -1.704199           -1.602649
 C           -1.764217           -1.140035           -2.729879
 C           -1.084626            0.024613           -2.612218
 C            1.924049           -0.131033           -0.696404
 C            2.691105           -1.352608           -0.920912
 N            2.750987           -2.257676            0.053668
 C            3.488502           -3.422928           -0.149575
 C            3.537060           -4.370651            0.889693
 C            4.267848           -5.553416            0.729888
 C            4.348624           -6.555977            1.752784
 C            5.075054           -7.703544            1.543397
 C            5.198150           -8.762431            2.531409
 H            6.020168          -10.678510            3.000200
 H            7.162787          -10.966774            0.844477
 H            7.029975           -9.192792           -0.929294
 H            5.463456           -5.051870           -2.474182
 H            4.625250           -2.844965           -3.355927
 H            3.740014           -0.616389           -4.157234
 H            2.406536            1.438022           -3.679986
 H            2.853737            3.307799           -1.469660
 H            2.826596            5.760066           -1.127223
 H            2.799073            8.193802           -0.739842
 H            2.776244           10.624523           -0.341003
 H            2.749493           13.073344            0.034463
 H            1.450482           15.163236            0.451937
 H           -1.000013           15.101079            0.659027
 H           -2.242945           12.946064            0.453358
 H           -2.209921           10.502482            0.073458
 H           -2.180818            8.074150           -0.316020
 H           -2.157609            5.641481           -0.677335
 H           -2.129511            3.189871           -0.978887
 H           -1.708559            0.792679            0.701786
 H           -4.336871           -2.474030            2.792813
 H           -5.747251           -4.207071            3.959646
 H           -7.160051           -5.995410            5.049840
 H           -8.392607           -8.157335            4.835186
 H           -8.483348           -9.353250            2.691038
 H           -7.343434           -8.428344            0.652806
 H           -4.709965           -5.158716           -1.442148
 H           -3.259243           -3.450885           -2.597094
 H           -1.788213           -1.692780           -3.669483
 H           -0.528990            0.451429           -3.447442
 H            1.425595           -0.028743            0.271667
 H            2.994503           -4.168003            1.816766
 H            3.819928           -6.383588            2.691739
 H            4.687978           -8.621729            3.484260

