102

 C           -2.472985            3.191920           -6.313541
 C           -1.168270            2.598606           -6.089233
 C           -0.806338            2.146173           -4.866669
 C           -1.729656            2.247041           -3.737030
 N           -1.340323            1.782092           -2.552031
 C           -2.203653            1.878896           -1.460878
 C           -3.507234            2.481716           -1.599136
 C           -3.900261            2.955499           -2.894175
 C           -3.042058            2.852558           -3.962934
 C           -3.366726            3.312195           -5.302440
 C           -4.343139            2.586684           -0.481710
 C           -3.921088            2.131530            0.777030
 C           -4.767273            2.261563            1.925658
 C           -4.359747            1.826950            3.166415
 C           -5.206742            1.949341            4.344441
 C           -4.783997            1.509895            5.554434
 C           -3.476603            0.904513            5.708736
 C           -2.646924            0.771817            4.646095
 C           -3.045008            1.227678            3.321695
 C           -2.215853            1.099472            2.230475
 C           -2.622388            1.526340            0.924061
 C           -1.787078            1.374553           -0.203987
 C           -0.468092            0.705253           -0.090589
 C            0.673358            1.438840           -0.180846
 C            1.987751            0.824078           -0.103172
 C            3.145059            1.565341           -0.185171
 C            4.433300            0.940108           -0.122405
 C            5.618756            1.686321           -0.201122
 C            6.875351            1.061425           -0.147191
 C            8.092419            1.812583           -0.225950
 C            9.320188            1.190205           -0.176603
 C           10.566557            1.939292           -0.256557
 C           11.764959            1.309001           -0.207213
 C           11.838127           -0.131786           -0.072847
 C           10.709524           -0.877338            0.005799
 C            9.393598           -0.255359           -0.041832
 C            8.235068           -0.996049            0.037336
 C            6.948073           -0.369252           -0.010692
 C            5.761279           -1.115464            0.072592
 C            4.506167           -0.490672            0.022465
 C            3.288242           -1.240699            0.113970
 C            2.061394           -0.618413            0.058778
 C            0.816840           -1.360825            0.165176
 C           -0.393864           -0.744731            0.101499
 C           -1.636815           -1.541682            0.244481
 C           -2.481056           -1.774056           -0.862838
 C           -2.150311           -1.310520           -2.178284
 C           -2.992506           -1.514120           -3.247705
 C           -2.673256           -1.023052           -4.580925
 C           -3.517245           -1.226865           -5.620696
 C           -4.760987           -1.946253           -5.433144
 C           -5.108011           -2.425862           -4.214450
 C           -4.242225           -2.231671           -3.059863
 C           -4.572672           -2.707247           -1.811419
 C           -3.711000           -2.502312           -0.685285
 C           -4.051694           -3.003519            0.580325
 C           -3.200152           -2.821985            1.676106
 C           -3.505776           -3.345765            2.975292
 C           -2.633876           -3.162502            4.022139
 C           -2.868627           -3.671428            5.362492
 C           -1.966464           -3.464190            6.351922
 C           -0.743008           -2.725425            6.102866
 C           -0.466520           -2.222690            4.877628
 C           -1.401608           -2.415647            3.770035
 N           -1.094806           -1.904206            2.579855
 C           -1.969462           -2.087560            1.509238
 H           -2.702365            3.536665           -7.320823
 H           -0.492244            2.533051           -6.942012
 H            0.170279            1.700915           -4.667016
 H           -4.891316            3.396360           -3.006973
 H           -4.350496            3.754051           -5.457585
 H           -5.333118            3.029776           -0.589502
 H           -5.747933            2.716269            1.792618
 H           -6.186703            2.405124            4.212845
 H           -5.408671            1.596512            6.441934
 H           -3.191019            0.561786            6.701521
 H           -1.661281            0.312907            4.741734
 H           -1.219404            0.655438            2.342312
 H            0.631937            2.518132           -0.336552
 H            3.102785            2.647654           -0.303779
 H            5.563713            2.769574           -0.305631
 H            8.022819            2.895338           -0.326458
 H           10.495479            3.021518           -0.357824
 H           12.702339            1.859614           -0.266681
 H           12.826512           -0.586955           -0.037766
 H           10.748390           -1.961213            0.107227
 H            8.275542           -2.080268            0.138333
 H            5.816378           -2.198720            0.177313
 H            3.356538           -2.321715            0.232425
 H            0.886641           -2.438723            0.320384
 H           -1.202353           -0.776295           -2.314562
 H           -1.734961           -0.478814           -4.702081
 H           -3.290897           -0.858549           -6.619602
 H           -5.400505           -2.085028           -6.303233
 H           -6.039099           -2.967988           -4.057889
 H           -5.502282           -3.252508           -1.654484
 H           -4.989346           -3.543666            0.710778
 H           -4.441000           -3.890495            3.108825
 H           -3.792007           -4.223024            5.536160
 H           -2.127939           -3.845491            7.359166
 H           -0.056064           -2.593176            6.939061
 H            0.448614           -1.668688            4.659447

