102

 C           -9.005761           -9.003011           -2.802628
 C           -8.403004           -9.800788           -1.751402
 C           -7.421824           -9.298353           -0.967030
 C           -6.938356           -7.933021           -1.168688
 N           -5.964749           -7.476454           -0.383266
 C           -5.492395           -6.179001           -0.577796
 C           -4.454927           -5.711115            0.247760
 C           -3.944935           -4.415540            0.083602
 C           -2.879165           -3.922842            0.906972
 C           -2.386765           -2.647655            0.750060
 C           -1.300132           -2.132400            1.572689
 C           -0.842157           -0.867754            1.420209
 C           -1.436391            0.019041            0.432456
 C           -0.954543            1.417201            0.350274
 C           -1.795510            2.439914            0.663013
 C           -1.375091            3.828049            0.580096
 C           -2.220112            4.865839            0.906105
 C           -1.795012            6.229404            0.797616
 C           -2.646766            7.294659            1.131280
 C           -2.223800            8.626962            1.009242
 C           -3.083675            9.722515            1.347267
 C           -2.662143           11.026565            1.217790
 C           -3.525090           12.150998            1.553252
 C           -3.091887           13.427621            1.420019
 C           -1.753825           13.709253            0.939583
 C           -0.910254           12.701549            0.610934
 C           -1.320473           11.309251            0.731926
 C           -0.477985           10.271632            0.402510
 C           -0.895149            8.906595            0.530589
 C           -0.041641            7.842042            0.203256
 C           -0.462460            6.508539            0.330705
 C            0.402996            5.413266            0.009156
 C           -0.022760            4.108875            0.130645
 C            0.845373            2.984487           -0.174269
 C            0.415515            1.697937           -0.067720
 C            1.340843            0.583517           -0.376293
 C            2.467219            0.388976            0.360463
 C            3.406525           -0.669891            0.030272
 C            4.552728           -0.876199            0.765037
 C            5.483873           -1.907233            0.415404
 C            6.653304           -2.123929            1.162332
 C            7.558267           -3.132958            0.807102
 C            8.758318           -3.396324            1.545032
 C            9.606896           -4.404476            1.152265
 C           10.835320           -4.733971            1.854965
 C           11.629603           -5.745592            1.429777
 C           11.280821           -6.525421            0.257161
 C           10.155163           -6.265546           -0.446507
 C            9.254511           -5.190209           -0.032666
 N            8.150596           -4.971078           -0.744058
 C            7.282426           -3.954206           -0.347957
 C            6.112743           -3.740257           -1.097605
 C            5.207574           -2.733991           -0.731435
 C            4.003186           -2.507147           -1.475527
 C            3.119445           -1.514823           -1.118229
 C            1.888192           -1.274315           -1.858797
 C            1.038387           -0.281653           -1.505617
 C           -2.437500           -0.419520           -0.376507
 C           -2.956245           -1.772379           -0.262518
 C           -3.971744           -2.228617           -1.072567
 C           -4.495579           -3.554620           -0.931772
 C           -5.530147           -4.025654           -1.756025
 C           -6.039429           -5.322148           -1.603036
 C           -7.088190           -5.847478           -2.426107
 C           -7.545783           -7.129653           -2.232208
 C           -8.600172           -7.730869           -3.030873
 H           -9.793309           -9.464978           -3.396684
 H           -8.771034          -10.818235           -1.618346
 H           -6.953178           -9.874416           -0.166690
 H           -4.052584           -6.374422            1.016721
 H           -2.466355           -4.589998            1.664484
 H           -0.869774           -2.806770            2.313901
 H           -0.021962           -0.476684            2.022795
 H           -2.819081            2.245007            0.988128
 H           -3.234424            4.668551            1.253050
 H           -3.653800            7.083388            1.490597
 H           -4.085756            9.496612            1.711325
 H           -4.527957           11.923599            1.913084
 H           -3.729484           14.275202            1.667099
 H           -1.456439           14.753366            0.853925
 H            0.097946           12.897382            0.247420
 H            0.528932           10.469497            0.035459
 H            0.965161            8.054259           -0.156191
 H            1.412309            5.638492           -0.335382
 H            1.863296            3.210760           -0.496737
 H            2.701592            1.023034            1.215428
 H            4.775417           -0.252089            1.630264
 H            6.858794           -1.498978            2.031529
 H            8.977409           -2.783477            2.420070
 H           11.088000           -4.138512            2.731681
 H           12.550844           -6.003838            1.950611
 H           11.959993           -7.326886           -0.034114
 H            9.869951           -6.833279           -1.334395
 H            5.920409           -4.371903           -1.967725
 H            3.804411           -3.146204           -2.336552
 H            1.677898           -1.926780           -2.706929
 H            0.109399           -0.100921           -2.046940
 H           -2.884469            0.230734           -1.128326
 H           -4.401340           -1.583327           -1.838514
 H           -5.942049           -3.373824           -2.526519
 H           -7.508466           -5.210514           -3.205116
 H           -9.046802           -7.120542           -3.815122

