102

 C           -0.713077           -9.031066            1.170562
 C           -1.715845           -8.303286            1.718363
 C           -1.732345           -6.850457            1.613801
 C           -2.738547           -6.093009            2.169218
 C           -2.740391           -4.664142            2.058887
 C           -3.771441           -3.889017            2.613387
 C           -3.769684           -2.493519            2.486005
 C           -4.817067           -1.660113            2.995333
 C           -4.772648           -0.296364            2.817013
 C           -5.819611            0.592558            3.287913
 C           -5.733883            1.929319            3.088284
 C           -4.597846            2.508520            2.404378
 C           -3.580371            1.739433            1.932496
 C           -2.422956            2.367463            1.250093
 C           -1.590829            3.176475            1.960386
 C           -0.469471            3.857964            1.336429
 C            0.358734            4.700692            2.044019
 C            1.445521            5.382732            1.405459
 C            2.287867            6.254426            2.112877
 C            3.342626            6.925209            1.472941
 C            4.209353            7.817679            2.183581
 C            5.238462            8.474062            1.545469
 C            6.128791            9.383533            2.253735
 C            7.135978           10.019906            1.608351
 C            7.354248            9.812508            0.191148
 C            6.555161            8.978098           -0.516562
 C            5.458169            8.265447            0.123594
 C            4.637836            7.410138           -0.577824
 C            3.563586            6.715277            0.066512
 C            2.724895            5.838538           -0.639877
 C            1.670485            5.169021           -0.000491
 C            0.803406            4.278826           -0.713842
 C           -0.239897            3.639916           -0.081939
 C           -1.136527            2.745429           -0.793750
 C           -2.185784            2.139686           -0.175499
 C           -3.095489            1.254080           -0.937658
 C           -2.551634            0.034553           -1.563850
 N           -1.248470           -0.218808           -1.492392
 C           -0.749550           -1.402636           -2.035295
 C            0.621192           -1.676620           -1.898430
 C            1.163867           -2.863189           -2.415376
 C            2.556668           -3.168792           -2.278423
 C            3.088125           -4.328580           -2.796720
 C            4.503054           -4.649633           -2.670217
 C            5.010193           -5.789105           -3.199366
 C            4.154870           -6.723204           -3.903232
 C            2.829594           -6.478130           -4.042552
 C            2.228593           -5.269316           -3.496684
 C            0.884673           -4.999579           -3.631320
 C            0.311014           -3.799558           -3.100501
 C           -1.059828           -3.520115           -3.236360
 C           -1.608921           -2.344129           -2.712189
 C           -3.001638           -2.019787           -2.809609
 C           -3.488569           -0.862026           -2.250826
 C           -4.889442           -0.486028           -2.325508
 C           -5.327775            0.665044           -1.763643
 C           -4.419138            1.540486           -1.054941
 C           -3.620604            0.279878            2.118576
 N           -2.624288           -0.465606            1.651261
 C           -2.676663           -1.849410            1.798385
 C           -1.639989           -2.621321            1.244234
 C           -1.660950           -4.018458            1.355345
 C           -0.628012           -4.828446            0.778488
 C           -0.646304           -6.199335            0.897202
 C            0.400715           -7.034660            0.324269
 C            0.370260           -8.382297            0.458877
 H           -0.689878          -10.117404            1.245697
 H           -2.538652           -8.776787            2.252271
 H           -3.558622           -6.568551            2.706328
 H           -4.585477           -4.379456            3.146032
 H           -5.649513           -2.131358            3.518578
 H           -6.669200            0.142993            3.800770
 H           -6.512260            2.608956            3.434236
 H           -4.586460            3.592384            2.279216
 H           -1.737518            3.333423            3.029436
 H            0.201181            4.867863            3.108809
 H            2.119528            6.414978            3.177219
 H            4.034098            7.965081            3.248731
 H            5.952680            9.530174            3.318554
 H            7.806996           10.701423            2.128785
 H            8.177709           10.348918           -0.277589
 H            6.706453            8.813055           -1.582550
 H            4.791026            7.244804           -1.643834
 H            2.895047            5.675967           -1.703779
 H            0.989250            4.118754           -1.775778
 H           -0.926408            2.558692           -1.848981
 H            1.255669           -0.952303           -1.381198
 H            3.190254           -2.453133           -1.753258
 H            5.133526           -3.938145           -2.137258
 H            6.067356           -6.036863           -3.113937
 H            4.615192           -7.621300           -4.312600
 H            2.173489           -7.171362           -4.567678
 H            0.228244           -5.698382           -4.150127
 H           -1.703794           -4.231119           -3.754024
 H           -3.661093           -2.712039           -3.333764
 H           -5.564800           -1.163408           -2.846754
 H           -6.374619            0.963559           -1.815872
 H           -4.840102            2.439121           -0.600928
 H           -0.824489           -2.111415            0.720305
 H            0.175855           -4.326426            0.235781
 H            1.205614           -6.531833           -0.213667
 H            1.151261           -9.015410            0.040632

