102

 C            3.268207           -5.159432            6.133244
 C            2.767200           -4.195471            5.324110
 C            2.935026           -4.265340            3.879010
 C            2.426407           -3.299900            3.040019
 C            2.602597           -3.380788            1.619956
 C            2.084490           -2.399831            0.759440
 C            2.263255           -2.490976           -0.627963
 C            1.754240           -1.513882           -1.543424
 C            1.947415           -1.658046           -2.897903
 C            1.465095           -0.708894           -3.895703
 C            0.729360            0.498183           -3.445402
 C            1.400916            1.651340           -3.187819
 C            0.706578            2.862782           -2.785140
 C            1.378424            4.042240           -2.550311
 C            0.676004            5.233266           -2.176940
 C            1.349696            6.444094           -1.947209
 C            0.650797            7.605779           -1.586144
 C            1.326963            8.846582           -1.345035
 C            0.633590            9.979418           -0.983571
 C            1.306529           11.246096           -0.728387
 C            0.607254           12.348830           -0.367769
 C           -0.834549           12.298614           -0.229396
 C           -1.511709           11.147991           -0.458332
 C           -0.813861            9.929207           -0.845346
 C           -1.483594            8.749273           -1.077238
 C           -0.781767            7.556235           -1.449771
 C           -1.455074            6.347199           -1.680132
 C           -0.755767            5.183770           -2.040651
 C           -1.432779            3.945030           -2.282276
 C           -0.738334            2.812587           -2.646957
 C           -1.410594            1.552518           -2.914009
 C           -0.722622            0.445258           -3.300094
 C           -1.442138           -0.818174           -3.591936
 C           -1.921314           -1.631222           -2.477851
 C           -1.730646           -1.310669           -1.153760
 C           -2.227094           -2.166998           -0.118250
 C           -2.049538           -1.893641            1.245088
 C           -2.550049           -2.764039            2.226412
 C           -2.372891           -2.498374            3.623652
 C           -2.864125           -3.356203            4.581484
 C           -2.694527           -3.098829            6.005081
 C           -3.182387           -3.956614            6.933028
 C           -3.888237           -5.157459            6.532920
 C           -4.076797           -5.444846            5.222764
 C           -3.576319           -4.559482            4.179953
 C           -3.760050           -4.833480            2.844061
 C           -3.258550           -3.953971            1.828834
 C           -3.442699           -4.232152            0.467358
 C           -2.936044           -3.360582           -0.512793
 N           -3.133101           -3.677619           -1.855490
 C           -2.648674           -2.863769           -2.792021
 C           -2.858499           -3.217988           -4.194406
 C           -2.386939           -2.420695           -5.179992
 C           -1.668453           -1.200925           -4.876908
 C            1.700648           -0.912522           -5.219415
 C            2.424555           -2.078805           -5.679015
 C            2.897333           -2.997793           -4.806370
 C            2.686584           -2.831336           -3.369557
 N            3.182363           -3.754263           -2.546883
 C            2.986983           -3.614370           -1.173864
 C            3.509874           -4.596941           -0.315055
 C            3.327907           -4.498438            1.071484
 C            3.846084           -5.493423            1.964171
 C            3.662549           -5.396501            3.324542
 C            4.175657           -6.403407            4.243630
 C            3.986252           -6.290295            5.580074
 H            3.147999           -5.117310            7.214597
 H            2.223497           -3.340920            5.724463
 H            1.872883           -2.451803            3.442126
 H            1.531812           -1.557241            1.174969
 H            1.212301           -0.654810           -1.142587
 H            2.486914            1.702505           -3.285600
 H            2.462869            4.092648           -2.650408
 H            2.433995            6.481276           -2.052162
 H            2.410986            8.870588           -1.454509
 H            2.390136           11.269395           -0.837817
 H            1.100827           13.299944           -0.172321
 H           -1.346435           13.214480            0.063060
 H           -2.595369           11.095726           -0.359711
 H           -2.567895            8.698228           -0.980288
 H           -2.539713            6.309684           -1.578535
 H           -2.517519            3.920819           -2.175626
 H           -2.496259            1.527477           -2.802394
 H           -1.201879           -0.399350           -0.866741
 H           -1.515495           -0.992706            1.546414
 H           -1.836608           -1.594712            3.911321
 H           -2.162976           -2.192209            6.290523
 H           -3.061702           -3.773602            7.999730
 H           -4.257419           -5.813248            7.319947
 H           -4.605368           -6.343303            4.905927
 H           -4.291473           -5.731387            2.527221
 H           -3.977585           -5.130258            0.150565
 H           -3.402031           -4.144011           -4.392564
 H           -2.532074           -2.670681           -6.231576
 H           -1.313743           -0.602306           -5.715936
 H            1.351561           -0.205978           -5.971876
 H            2.573237           -2.186955           -6.753937
 H            3.444303           -3.887778           -5.123855
 H            4.055791           -5.439168           -0.745486
 H            4.389393           -6.334971            1.533734
 H            4.713060           -7.247331            3.812666
 H            4.362969           -7.039138            6.275135

