92

 C           -5.144723           -7.435524           -2.639549
 C           -5.819823           -6.722366           -1.721483
 C           -5.080728           -5.569051           -1.196813
 C           -5.481241           -4.658733           -0.262097
 C           -4.585750           -3.596375            0.129996
 C           -4.957786           -2.657688            1.103720
 C           -4.087688           -1.629507            1.495378
 C           -2.795417           -1.518383            0.873494
 C           -2.419144           -2.466830           -0.087550
 C           -3.285498           -3.501049           -0.473118
 C           -2.889166           -4.474759           -1.465422
 C           -3.763249           -5.456105           -1.795898
 S           -3.539379           -6.761794           -2.953482
 C           -1.900649           -0.448210            1.284194
 C           -0.579264           -0.277635            0.636021
 C            0.529102           -0.807583            1.219370
 C            1.850223           -0.650651            0.635375
 C            2.973895           -1.192388            1.219707
 C            4.269978           -1.018767            0.634855
 C            5.422070           -1.567722            1.221082
 C            6.687413           -1.386727            0.642098
 C            7.871256           -1.938131            1.233169
 C            9.108431           -1.756139            0.657274
 C           10.321033           -2.307821            1.246958
 C           11.529327           -2.119430            0.664043
 C           11.648120           -1.362254           -0.566029
 C           10.553339           -0.826394           -1.157203
 C            9.228010           -0.993722           -0.575961
 C            8.103937           -0.454252           -1.159662
 C            6.806333           -0.628403           -0.576019
 C            5.655327           -0.080137           -1.162137
 C            4.388873           -0.260687           -0.582744
 C            3.206352            0.289299           -1.175221
 C            1.968920            0.105752           -0.598563
 C            0.757121            0.644049           -1.192443
 C           -0.462867            0.462729           -0.619500
 C           -1.671656            1.007996           -1.280204
 C           -2.268081            0.347312           -2.309863
 S           -1.743994           -1.140277           -3.087770
 C           -3.119569           -1.151838           -4.201812
 C           -3.921491           -0.089467           -4.018168
 C           -3.477971            0.819370           -2.955184
 C           -4.053056            1.987042           -2.548729
 C           -3.433886            2.759927           -1.498398
 C           -2.229878            2.286255           -0.869899
 C           -1.607956            3.086086            0.098854
 C           -2.155052            4.316927            0.492015
 C           -1.510201            5.132623            1.496482
 C           -2.083691            6.311273            1.840268
 S           -1.517522            7.488765            3.018498
 C           -2.876033            8.580161            2.713554
 C           -3.714686            8.092979            1.782789
 C           -3.316537            6.789288            1.241121
 C           -3.945631            6.037142            0.291856
 C           -3.375080            4.774267           -0.112883
 C           -3.985769            3.986329           -1.099665
 C           -2.294360            0.362332            2.304251
 S           -1.375472            1.643121            3.084122
 C           -2.704113            2.057837            4.177974
 C           -3.773403            1.266557            3.988971
 C           -3.595002            0.259053            2.937528
 C           -4.472686           -0.702803            2.533071
 H           -5.454960           -8.320330           -3.171188
 H           -6.818522           -6.939605           -1.363636
 H           -6.463711           -4.712471            0.202377
 H           -5.940080           -2.732500            1.570108
 H           -1.427374           -2.404340           -0.543750
 H           -1.901904           -4.388692           -1.918154
 H            0.457354           -1.366746            2.154816
 H            2.897727           -1.766046            2.143579
 H            5.331320           -2.144698            2.141403
 H            7.767197           -2.507849            2.156487
 H           10.216012           -2.875449            2.170938
 H           12.442259           -2.527363            1.095558
 H           12.643709           -1.242868           -0.990947
 H           10.626852           -0.255161           -2.082047
 H            8.179094            0.118641           -2.083862
 H            5.745372            0.496022           -2.083080
 H            3.309431            0.858188           -2.099473
 H            0.860464            1.198431           -2.127822
 H           -3.215931           -1.960605           -4.908459
 H           -4.824570            0.122865           -4.577224
 H           -4.966986            2.361687           -3.005309
 H           -0.674054            2.747092            0.555515
 H           -0.585953            4.773540            1.948041
 H           -2.935919            9.507690            3.259461
 H           -4.613743            8.580534            1.426906
 H           -4.872443            6.365257           -0.174204
 H           -4.904507            4.336411           -1.570119
 H           -2.574166            2.867493            4.878338
 H           -4.706345            1.326098            4.536099
 H           -5.459138           -0.799894            2.982130

