86

 C           -2.811043           -1.836078            2.003438
 C           -1.708539           -1.143622            1.641829
 C           -0.998191           -1.468728            0.410879
 C            0.235801           -0.713847            0.091948
 C            1.431919           -1.360395            0.045734
 C            2.666442           -0.663724           -0.273204
 C            3.881786           -1.311022           -0.304250
 C            5.085925           -0.611161           -0.640204
 C            6.331166           -1.258711           -0.665385
 C            7.502086           -0.565890           -1.009869
 C            8.779189           -1.215033           -1.036661
 C            9.921183           -0.529137           -1.384527
 C           11.225802           -1.175613           -1.421796
 C           12.338570           -0.483932           -1.766425
 C           12.260206            0.922733           -2.106046
 C           11.071994            1.573183           -2.089639
 C            9.841854            0.881346           -1.729876
 C            8.624850            1.524730           -1.708784
 C            7.424117            0.831019           -1.348284
 C            6.180368            1.480333           -1.315457
 C            5.010496            0.789595           -0.962451
 C            3.737820            1.445357           -0.909991
 C            2.594737            0.756434           -0.570037
 C            1.298996            1.408733           -0.490148
 C            0.169652            0.721623           -0.168932
 C           -1.126954            1.433209           -0.087356
 C           -1.339066            2.399954            0.841901
 C           -2.597005            3.133954            0.895627
 C           -2.825384            4.107555            1.828774
 C           -4.066193            4.848653            1.863958
 C           -4.290212            5.830160            2.813296
 C           -5.512093            6.554194            2.819157
 C           -5.914669            7.567855            3.686749
 S           -7.458147            8.111876            3.259214
 C           -7.656515            7.060572            1.949289
 C           -6.526559            6.256337            1.811684
 C           -6.278891            5.238771            0.852204
 C           -5.083409            4.542236            0.867647
 C           -4.809669            3.497843           -0.094555
 C           -3.626905            2.811998           -0.092850
 C           -3.344629            1.750922           -1.055500
 C           -2.164478            1.092672           -1.053053
 C           -1.445358           -2.458685           -0.403040
 C           -2.634647           -3.232367           -0.069641
 C           -3.096981           -4.231439           -0.881484
 C           -4.265650           -5.009479           -0.536835
 C           -4.727447           -6.017308           -1.364792
 C           -5.871339           -6.775924           -0.999232
 C           -6.477915           -7.819199           -1.695810
 S           -7.807965           -8.396435           -0.824326
 C           -7.645710           -7.322056            0.472169
 C           -6.552427           -6.484376            0.259436
 C           -6.065534           -5.440115            1.090294
 C           -4.951506           -4.711317            0.713052
 C           -4.438500           -3.640746            1.539319
 C           -3.333128           -2.921909            1.178330
 H           -3.350760           -1.605190            2.922165
 H           -1.317147           -0.325510            2.246587
 H            1.499066           -2.430390            0.250244
 H            3.951013           -2.374071           -0.074169
 H            6.389833           -2.317391           -0.413537
 H            8.824839           -2.271424           -0.773068
 H           11.268768           -2.233107           -1.163739
 H           13.318214           -0.958345           -1.799646
 H           13.185879            1.431045           -2.371923
 H           10.996942            2.630121           -2.342658
 H            8.550699            2.580571           -1.968069
 H            6.122092            2.538848           -1.568104
 H            3.696274            2.508736           -1.145138
 H            1.263267            2.479246           -0.699759
 H           -0.576146            2.661210            1.574805
 H           -2.070790            4.356033            2.574842
 H           -3.539851            6.065136            3.565895
 H           -5.351649            7.965268            4.512156
 H           -8.535724            7.039046            1.330648
 H           -7.046746            5.022000            0.111804
 H           -5.585442            3.273026           -0.826469
 H           -4.128062            1.509403           -1.774133
 H           -1.948908            0.292181           -1.760668
 H           -0.929819           -2.709318           -1.329814
 H           -2.591191           -4.472370           -1.816237
 H           -4.226386           -6.246870           -2.303290
 H           -6.170846           -8.218899           -2.645617
 H           -8.303927           -7.311151            1.322384
 H           -6.586838           -5.229132            2.022259
 H           -4.968454           -3.423903            2.466861

