116

 C            2.307467           -9.164042            4.493303
 C            3.246171           -8.398032            3.890622
 C            2.916916           -7.080179            3.358149
 C            3.855477           -6.291554            2.743990
 C            3.516523           -4.995379            2.214132
 C            4.461804           -4.190202            1.587761
 C            4.113489           -2.919759            1.062986
 C            5.068048           -2.093522            0.418946
 C            4.714958           -0.849825           -0.094676
 C            5.670776           -0.006827           -0.764369
 C            5.315757            1.216690           -1.272497
 C            6.282311            2.059092           -1.967351
 C            5.929925            3.270643           -2.455286
 C            4.580072            3.768399           -2.294073
 C            3.631566            3.026820           -1.663999
 C            2.264742            3.579381           -1.494678
 C            1.985951            4.391812           -0.441231
 C            0.679241            5.006194           -0.276326
 C            0.399985            5.853210            0.773143
 C           -0.883995            6.475314            0.902615
 C           -1.174827            7.350078            1.961594
 C           -2.434616            7.957879            2.075139
 C           -2.745635            8.847959            3.154436
 C           -3.988150            9.430869            3.263640
 C           -4.324222           10.328037            4.360914
 C           -5.555550           10.884790            4.456142
 C           -6.572625           10.606524            3.462009
 C           -6.312155            9.784458            2.417280
 C           -5.008775            9.152115            2.265617
 C           -4.728215            8.306549            1.215999
 C           -3.445115            7.681371            1.087817
 C           -3.154598            6.807028            0.029309
 C           -1.895080            6.197031           -0.083164
 C           -1.586307            5.303521           -1.159550
 C           -0.342885            4.721339           -1.268584
 C           -0.007336            3.824574           -2.361485
 C            1.231134            3.276036           -2.481447
 C            1.545146            2.381346           -3.621415
 C            1.003955            1.017839           -3.625003
 C            0.238643            0.519066           -2.602192
 C           -0.273809           -0.826992           -2.626347
 C           -1.042370           -1.336633           -1.584642
 C           -1.537784           -2.664291           -1.618745
 C           -2.322892           -3.192663           -0.562894
 C           -2.802407           -4.497418           -0.603713
 C           -3.602146           -5.044355            0.462706
 C           -4.065492           -6.334046            0.418734
 C           -4.872932           -6.902588            1.492695
 C           -5.317093           -8.179523            1.433499
 C           -5.004365           -9.022621            0.294180
 C           -4.262585           -8.548455           -0.733501
 C           -3.752528           -7.181634           -0.728303
 C           -2.998225           -6.686144           -1.760492
 C           -2.495631           -5.336037           -1.742181
 C           -1.729038           -4.826258           -2.784678
 C           -1.236942           -3.496667           -2.753204
 C           -0.455557           -2.967280           -3.810699
 C            0.026201           -1.662824           -3.767462
 C            0.826036           -1.112487           -4.830599
 C            1.307765            0.170773           -4.775856
 C            2.127865            0.719781           -5.849346
 C            2.603359            1.984823           -5.788106
 C            2.306264            2.832419           -4.652477
 C            3.945353            1.700533           -1.125188
 C            3.014522            0.915160           -0.494852
 C            3.352467           -0.382356            0.033156
 C            2.406499           -1.189669            0.657143
 C            2.755444           -2.459489            1.182666
 C            1.799801           -3.287639            1.824257
 C            2.151819           -4.530954            2.338872
 C            1.189913           -5.378785            2.996195
 C            1.541578           -6.608180            3.491265
 C            0.577379           -7.479205            4.154606
 C            0.941239           -8.693267            4.629250
 H            2.542346          -10.150025            4.891653
 H            4.275297           -8.737428            3.780073
 H            4.885802           -6.629795            2.638718
 H            5.491441           -4.533381            1.491520
 H            6.093586           -2.449249            0.326216
 H            6.691738           -0.375129           -0.860558
 H            7.293822            1.670961           -2.079178
 H            6.641566            3.907605           -2.978773
 H            4.354927            4.756477           -2.693896
 H            2.745425            4.615757            0.310079
 H            1.156830            6.070837            1.526851
 H           -0.408830            7.560131            2.708027
 H           -1.970201            9.050998            3.892795
 H           -3.548318           10.530437            5.098389
 H           -5.818371           11.554233            5.274007
 H           -7.544830           11.081175            3.587017
 H           -7.064982            9.568398            1.660131
 H           -5.481957            8.092663            0.458606
 H           -3.919478            6.597420           -0.718309
 H           -2.362310            5.096636           -1.896556
 H           -0.788458            3.608647           -3.092794
 H           -0.005067            1.134479           -1.734360
 H           -1.274616           -0.712474           -0.722345
 H           -2.550800           -2.556290            0.291438
 H           -3.829609           -4.397272            1.309292
 H           -5.101803           -6.257113            2.339828
 H           -5.919246           -8.613613            2.230291
 H           -5.388105          -10.041731            0.300924
 H           -4.019740           -9.167812           -1.596249
 H           -2.757707           -7.306315           -2.623826
 H           -1.494673           -5.452614           -3.645404
 H           -0.230330           -3.602438           -4.667177
 H            1.043387           -1.752663           -5.685478
 H            2.343840            0.069486           -6.696086
 H            3.220017            2.405277           -6.581498
 H            2.717688            3.841759           -4.653611
 H            1.983807            1.255769           -0.379588
 H            1.373422           -0.852562            0.743436
 H            0.771231           -2.936632            1.906684
 H            0.167233           -5.012200            3.084802
 H           -0.444320           -7.112415            4.247863
 H            0.228571           -9.351765            5.123090

