116

 C          -10.309893          -10.698960            1.224032
 C          -10.790033          -10.022976            2.415237
 C          -10.304192           -8.809353            2.765094
 C           -9.284531           -8.144830            1.960809
 C           -8.773526           -6.919979            2.305521
 C           -7.761588           -6.277632            1.506573
 C           -7.231153           -5.039536            1.854224
 C           -6.229149           -4.421795            1.064637
 C           -5.682520           -3.160188            1.410296
 C           -4.694083           -2.565670            0.633523
 C           -4.139964           -1.279333            0.969146
 C           -3.164966           -0.699079            0.199096
 C           -2.619382            0.613211            0.514849
 C           -1.653546            1.177503           -0.255601
 C           -1.138798            2.533768            0.043031
 C           -1.972618            3.605848           -0.038075
 C           -1.517222            4.953187            0.258098
 C           -2.354055            6.042893            0.162864
 C           -1.891154            7.362178            0.474994
 C           -2.733072            8.480989            0.373665
 C           -2.271890            9.767189            0.693760
 C           -3.120066           10.917526            0.590716
 C           -2.660979           12.174615            0.914270
 C           -3.510772           13.353436            0.816317
 C           -3.041572           14.582086            1.141413
 C           -1.676634           14.756685            1.595964
 C           -0.843002           13.694487            1.705751
 C           -1.291045           12.349847            1.370442
 C           -0.458380           11.258245            1.473424
 C           -0.913877            9.941638            1.138493
 C           -0.070185            8.824285            1.232923
 C           -0.529157            7.538643            0.905597
 C            0.326410            6.392595            0.985990
 C           -0.136070            5.134566            0.669471
 C            0.721154            3.963232            0.727578
 C            0.257766            2.720140            0.425823
 C            1.175264            1.559083            0.484038
 C            2.260389            1.487728           -0.330139
 C            3.195898            0.375690           -0.244553
 C            4.296149            0.294228           -1.058979
 C            5.232138           -0.794753           -0.948160
 C            6.350126           -0.883352           -1.770463
 C            7.270995           -1.954000           -1.645835
 C            8.408996           -2.057541           -2.484558
 C            9.306945           -3.111905           -2.354392
 C           10.461826           -3.233555           -3.206754
 C           11.337441           -4.280807           -3.077551
 C           12.506294           -4.419931           -3.939285
 C           13.355190           -5.465030           -3.803409
 C           13.127029           -6.479496           -2.790884
 C           12.062068           -6.400198           -1.959755
 C           11.110112           -5.299177           -2.056397
 C           10.023062           -5.204910           -1.225965
 C            9.082224           -4.120415           -1.341815
 C            7.969146           -4.026089           -0.512712
 C            7.043492           -2.960758           -0.643437
 C            5.897463           -2.864154            0.186191
 C            4.995836           -1.814073            0.051333
 C            3.823427           -1.708085            0.882873
 C            2.945952           -0.663192            0.750344
 C            1.750883           -0.544024            1.578808
 C            0.908465            0.506288            1.454507
 C           -1.122846            0.470499           -1.413033
 C           -1.602639           -0.746850           -1.754455
 C           -2.656697           -1.393624           -0.980290
 C           -3.171035           -2.615714           -1.328440
 C           -4.206111           -3.244885           -0.547332
 C           -4.741512           -4.479152           -0.898798
 C           -5.753931           -5.091332           -0.116881
 C           -6.307046           -6.348271           -0.467420
 C           -7.288791           -6.947843            0.314898
 C           -7.849138           -8.230538           -0.024726
 C           -8.805938           -8.822189            0.759299
 C           -9.369646          -10.128076            0.435794
 H          -10.733484          -11.675311            0.993858
 H          -11.549839          -10.528592            3.009256
 H          -10.654534           -8.288692            3.655504
 H           -9.121420           -6.401037            3.198381
 H           -7.584233           -4.527643            2.749184
 H           -6.051377           -2.654684            2.302499
 H           -4.524790           -0.776266            1.855755
 H           -3.020234            1.125916            1.389071
 H           -3.016614            3.483475           -0.331463
 H           -3.390220            5.921319           -0.152372
 H           -3.762164            8.347442            0.040895
 H           -4.143587           10.771673            0.246614
 H           -4.534255           13.206468            0.473674
 H           -3.668752           15.469720            1.073247
 H           -1.351603           15.766344            1.842708
 H            0.185455           13.809883            2.045814
 H            0.569817           11.374339            1.815125
 H            0.959174            8.955915            1.565840
 H            1.358254            6.540972            1.304122
 H            1.759716            4.117620            1.025512
 H            2.468002            2.261771           -1.068754
 H            4.492331            1.057935           -1.810953
 H            6.531025           -0.120557           -2.527443
 H            8.572942           -1.293208           -3.243872
 H           10.618183           -2.465178           -3.963497
 H           12.663662           -3.650534           -4.694200
 H           14.229080           -5.579605           -4.442971
 H           13.840918           -7.299447           -2.729519
 H           11.876583           -7.153479           -1.195024
 H            9.841350           -5.953937           -0.455611
 H            7.796128           -4.781314            0.253692
 H            5.729384           -3.633607            0.939565
 H            3.654567           -2.488933            1.624453
 H            1.562963           -1.339366            2.300374
 H            0.010085            0.599808            2.065195
 H           -0.330807            0.958103           -1.981771
 H           -1.214903           -1.287296           -2.618164
 H           -2.807393           -3.144537           -2.209506
 H           -4.383236           -4.995064           -1.789499
 H           -5.949212           -6.846981           -1.367924
 H           -7.484907           -8.720138           -0.927570
 H           -8.999486          -10.622052           -0.461739

