116

 C          -13.894933           -1.744261           -2.618101
 C          -13.699377           -0.323759           -2.394055
 C          -12.479142            0.164442           -2.071204
 C          -11.324368           -0.717432           -1.940348
 C          -10.079627           -0.240993           -1.617719
 C           -8.947588           -1.123090           -1.491428
 C           -7.680953           -0.647791           -1.166947
 C           -6.575247           -1.526224           -1.042207
 C           -5.280935           -1.053060           -0.707376
 C           -4.202493           -1.923743           -0.590599
 C           -2.882939           -1.456044           -0.249068
 C           -1.818395           -2.314912           -0.153363
 C           -2.016380           -3.741141           -0.401208
 C           -3.264933           -4.217397           -0.708857
 C           -4.399955           -3.338391           -0.817499
 C           -5.666322           -3.813804           -1.140188
 C           -6.771888           -2.934776           -1.260202
 C           -8.065570           -3.409301           -1.592369
 C           -9.144413           -2.539508           -1.710340
 C          -10.463146           -3.010164           -2.048347
 C          -11.521911           -2.146719           -2.163763
 C          -12.861442           -2.610700           -2.507690
 C           -0.864098           -4.630898           -0.319014
 C            0.365756           -4.154633           -0.018513
 C            0.569803           -2.744784            0.242123
 C           -0.464564           -1.866270            0.185956
 C           -0.232958           -0.431714            0.482174
 C           -0.464219            0.064195            1.725886
 C           -0.209248            1.458440            2.048109
 C           -0.443287            1.969082            3.305408
 C           -0.176656            3.343585            3.609478
 C           -0.408238            3.873397            4.888678
 C           -0.140894            5.221087            5.175434
 C           -0.367481            5.772367            6.478582
 C           -0.105114            7.096564            6.749510
 C           -0.326358            7.671092            8.069508
 C           -0.065663            8.977520            8.315616
 C            0.440574            9.841141            7.267910
 C            0.666627            9.358650            6.022411
 C            0.408381            7.962096            5.699498
 C            0.636227            7.451887            4.441182
 C            0.374710            6.075947            4.138369
 C            0.608028            5.545872            2.859938
 C            0.343834            4.197183            2.574057
 C            0.576934            3.645297            1.272630
 C            0.311962            2.321487            1.001599
 C            0.532661            1.748787           -0.315918
 C            0.270298            0.441139           -0.575329
 C            0.466109           -0.112288           -1.937101
 C           -0.578431           -0.162898           -2.803771
 C           -0.408773           -0.678371           -4.146425
 C            0.797259           -1.121186           -4.569487
 C            1.957951           -1.102772           -3.686926
 C            3.181336           -1.557932           -4.107096
 C            4.323083           -1.565936           -3.229905
 C            5.561919           -2.042809           -3.644344
 C            6.673058           -2.061987           -2.764177
 C            7.937508           -2.553668           -3.174729
 C            9.021123           -2.573610           -2.302948
 C           10.309064           -3.076133           -2.707315
 C           11.371954           -3.095863           -1.841344
 C           12.679373           -3.607691           -2.236984
 C           13.717491           -3.620762           -1.369065
 C           13.559390           -3.120593           -0.015867
 C           12.369993           -2.632679            0.406987
 C           11.211583           -2.595886           -0.478959
 C            9.996808           -2.111266           -0.066764
 C            8.860405           -2.082398           -0.951708
 C            7.622687           -1.598994           -0.539507
 C            6.511937           -1.574680           -1.419971
 C            5.246086           -1.083882           -1.010268
 C            4.161339           -1.070526           -1.880742
 C            2.868951           -0.578864           -1.475295
 C            1.795549           -0.590388           -2.328292
 H          -14.898152           -2.080675           -2.875238
 H          -14.567621            0.325659           -2.494830
 H          -12.318276            1.227904           -1.898321
 H           -9.915935            0.822821           -1.447422
 H           -7.525122            0.418391           -1.003908
 H           -5.138190            0.014356           -0.539146
 H           -2.756905           -0.387356           -0.064744
 H           -3.427643           -5.280577           -0.884592
 H           -5.821932           -4.879267           -1.307603
 H           -8.207018           -4.477194           -1.756949
 H          -10.594948           -4.079561           -2.210677
 H          -12.992711           -3.679654           -2.671028
 H           -1.034824           -5.688649           -0.515292
 H            1.236206           -4.807776            0.036581
 H            1.581876           -2.415733            0.479278
 H           -0.845853           -0.575860            2.523016
 H           -0.838625            1.333318            4.097602
 H           -0.801394            3.226485            5.672734
 H           -0.755055            5.113116            7.254880
 H           -0.707210            7.009958            8.846900
 H           -0.226482            9.416621            9.298978
 H            0.629693           10.883557            7.519556
 H            1.046432            9.996003            5.224858
 H            1.022686            8.088443            3.645584
 H            1.000346            6.192457            2.075150
 H            0.971961            4.302021            0.497522
 H            0.914208            2.409929           -1.095687
 H           -1.573139            0.176633           -2.514167
 H           -1.285318           -0.695179           -4.793431
 H            0.941720           -1.510635           -5.576456
 H            3.317870           -1.932196           -5.121485
 H            5.690839           -2.413152           -4.661033
 H            8.052155           -2.921948           -4.193884
 H           10.413822           -3.443225           -3.727883
 H           12.782906           -3.977504           -3.256343
 H           14.696556           -4.002488           -1.654466
 H           14.429706           -3.153647            0.637800
 H           12.237563           -2.252108            1.419119
 H            9.861122           -1.733862            0.946493
 H            7.493886           -1.230847            0.478103
 H            5.130391           -0.712221            0.007860
 H            2.770802           -0.192047           -0.459029

