116

 C           -2.597532            0.287172            4.885950
 C           -1.491222           -0.473954            4.337870
 C           -0.929936           -0.127271            3.156428
 C           -1.411700            1.016551            2.388877
 C           -2.509795            1.794455            2.955612
 C           -3.080973            1.365952            4.228457
 C           -2.989306            2.893498            2.293518
 C           -2.408893            3.331353            1.051177
 C           -2.874354            4.469341            0.401941
 C           -2.280158            4.926269           -0.801342
 C           -2.752729            6.077784           -1.477450
 C           -2.150838            6.522168           -2.651001
 C           -2.626548            7.687237           -3.351108
 C           -2.025913            8.121984           -4.504898
 C           -2.501296            9.297195           -5.226526
 C           -1.893123            9.714334           -6.361260
 C           -0.745874            9.002229           -6.893031
 C           -0.263508            7.902615           -6.268665
 C           -0.877018            7.400827           -5.044080
 C           -0.405093            6.285467           -4.399973
 C           -1.017885            5.802455           -3.189613
 C           -0.549242            4.668246           -2.532607
 C           -1.163175            4.201595           -1.344209
 C           -0.706986            3.034137           -0.679068
 C           -1.312002            2.575237            0.485360
 C           -0.871744            1.375622            1.172010
 C            0.185550            0.546197            0.540655
 C            1.493591            0.749207            0.850440
 C            2.551818           -0.064392            0.275710
 C            3.877656            0.135727            0.589895
 C            4.907147           -0.684635            0.023731
 C            6.260849           -0.494859            0.343616
 C            7.260584           -1.304502           -0.217869
 C            8.645028           -1.124552            0.105612
 C            9.619000           -1.920416           -0.454702
 C           11.030208           -1.749772           -0.136569
 C           11.973992           -2.542378           -0.699168
 C           11.603303           -3.584706           -1.635079
 C           10.305515           -3.787012           -1.966819
 C            9.246974           -2.966578           -1.393996
 C            7.922204           -3.157938           -1.716806
 C            6.891874           -2.343876           -1.143008
 C            5.538093           -2.536259           -1.459744
 C            4.537686           -1.730223           -0.893926
 C            3.152254           -1.919811           -1.206620
 C            2.178847           -1.120734           -0.649484
 C            0.770122           -1.293496           -0.961714
 C           -0.188386           -0.503841           -0.408632
 C           -1.615610           -0.692346           -0.771908
 C           -2.425226           -1.577398            0.043769
 C           -1.892532           -2.330908            1.083899
 C           -2.702795           -3.187269            1.873039
 C           -2.160451           -3.957232            2.931780
 C           -2.966239           -4.783665            3.709383
 C           -2.427866           -5.570529            4.788917
 C           -3.229719           -6.380549            5.551885
 C           -2.696635           -7.185386            6.645568
 C           -3.503798           -7.976646            7.389786
 C           -4.928327           -8.045604            7.121178
 C           -5.478931           -7.323784            6.117617
 C           -4.661668           -6.454864            5.277820
 C           -5.201427           -5.718900            4.254317
 C           -4.384099           -4.862138            3.434328
 C           -4.924217           -4.116021            2.391388
 C           -4.110440           -3.274744            1.593046
 C           -4.643777           -2.520493            0.518129
 C           -3.836046           -1.695292           -0.256806
 C           -4.374891           -0.961716           -1.371695
 C           -3.575384           -0.180953           -2.163982
 C           -4.117224            0.544095           -3.308772
 C           -3.322545            1.302567           -4.098114
 C           -1.902214            1.410899           -3.825102
 C           -1.348401            0.767750           -2.771171
 C           -2.151290           -0.051411           -1.869060
 H           -3.017592           -0.042509            5.834981
 H           -1.136897           -1.330593            4.909043
 H           -0.091830           -0.690225            2.743286
 H           -3.910938            1.950149            4.623912
 H           -3.822111            3.469829            2.696080
 H           -3.709586            5.030239            0.820414
 H           -3.604390            6.617417           -1.064413
 H           -3.483735            8.215573           -2.934472
 H           -3.363463            9.821379           -4.815549
 H           -2.241390           10.588973           -6.908386
 H           -0.293925            9.385535           -7.806597
 H            0.596049            7.357422           -6.656896
 H            0.450680            5.735786           -4.790828
 H            0.305356            4.122115           -2.930877
 H            0.140047            2.491839           -1.103667
 H            1.786343            1.533499            1.551079
 H            4.171022            0.926747            1.280140
 H            6.540894            0.294928            1.040534
 H            8.910267           -0.337674            0.811414
 H           11.294107           -0.962524            0.568780
 H           13.031609           -2.422676           -0.468477
 H           12.402001           -4.193194           -2.056819
 H           10.011953           -4.566360           -2.669151
 H            7.630006           -3.937455           -2.420026
 H            5.258911           -3.325940           -2.157024
 H            2.885581           -2.717325           -1.900106
 H            0.504366           -2.084159           -1.665831
 H           -0.825937           -2.271940            1.309192
 H           -1.091040           -3.894778            3.131156
 H           -1.357490           -5.503763            4.981709
 H           -1.625788           -7.123315            6.836034
 H           -3.115252           -8.582442            8.206991
 H           -5.529765           -8.695902            7.754454
 H           -6.546320           -7.366084            5.903552
 H           -6.267918           -5.764858            4.035416
 H           -5.990974           -4.172359            2.177108
 H           -5.708326           -2.599092            0.299398
 H           -5.442542           -1.051887           -1.570903
 H           -5.185641            0.449122           -3.498306
 H           -3.716774            1.850007           -4.952954
 H           -1.306035            2.028437           -4.495104
 H           -0.279051            0.836546           -2.566620

