104

 C           -6.380942          -10.298839            0.292342
 C           -6.484534           -9.212341           -0.510285
 C           -5.713247           -8.005667           -0.244198
 C           -5.797968           -6.894540           -1.052749
 C           -5.021695           -5.720057           -0.785725
 C           -5.093254           -4.586937           -1.610756
 C           -4.327458           -3.442292           -1.339291
 C           -4.390856           -2.280164           -2.174899
 C           -3.638614           -1.160855           -1.898242
 C           -3.687942            0.027168           -2.738968
 C           -2.952876            1.125586           -2.446191
 C           -2.086460            1.148402           -1.277653
 C           -1.337632            2.394988           -0.997401
 C           -2.008203            3.549670           -0.736338
 C           -1.311047            4.790025           -0.441379
 C           -1.985136            5.955750           -0.151708
 C           -1.279260            7.166761            0.144590
 C           -1.955499            8.357123            0.455649
 C           -1.252194            9.535156            0.750995
 C           -1.930217           10.754552            1.077659
 C           -1.230896           11.905061            1.365587
 C           -1.904679           13.152627            1.698655
 C           -1.198904           14.275575            1.974980
 C            0.250040           14.264639            1.949854
 C            0.927942           13.131077            1.648771
 C            0.223269           11.894490            1.340044
 C            0.894517           10.733650            1.028920
 C            0.187144            9.524637            0.728029
 C            0.863326            8.335834            0.414775
 C            0.159957            7.155949            0.126262
 C            0.840249            5.933461           -0.179907
 C            0.141461            4.778139           -0.450347
 C            0.815532            3.523709           -0.736086
 C            0.123030            2.380624           -0.988696
 C            0.856637            1.119683           -1.245138
 C            0.744223            0.500838           -2.556025
 C            1.440120           -0.623337           -2.847033
 C            2.311801           -1.250464           -1.862667
 C            3.040673           -2.382362           -2.148983
 C            3.887747           -2.989784           -1.165056
 C            4.640978           -4.138720           -1.450330
 C            5.463472           -4.727893           -0.476820
 C            6.238534           -5.899521           -0.757074
 C            7.030571           -6.479827            0.208519
 C            7.814355           -7.678318           -0.056494
 C            8.580499           -8.240029            0.909537
 C            8.646253           -7.656417            2.234222
 C            7.939741           -6.540012            2.534428
 C            7.093812           -5.896387            1.538871
 C            6.362266           -4.765880            1.827192
 C            5.530548           -4.147249            0.838352
 C            4.781532           -2.994216            1.121801
 C            3.963993           -2.402226            0.146879
 C            3.201522           -1.220779            0.421154
 C            2.401761           -0.647896           -0.542327
 C            1.641793            0.563795           -0.283904
 C           -1.994793            0.060053           -0.468084
 C           -2.763113           -1.144527           -0.737828
 C           -2.682910           -2.253653            0.075025
 C           -3.454528           -3.429995           -0.194961
 C           -3.380273           -4.565090            0.627807
 C           -4.145331           -5.709842            0.356160
 C           -4.076506           -6.875403            1.186915
 C           -4.828175           -7.995057            0.909752
 C           -4.765614           -9.189175            1.741362
 C           -5.503468          -10.286163            1.445580
 H           -6.947794          -11.208146            0.098426
 H           -7.141960           -9.205347           -1.378743
 H           -6.460147           -6.886716           -1.917842
 H           -5.753537           -4.596584           -2.477408
 H           -5.053724           -2.304370           -3.039229
 H           -4.339331           -0.004100           -3.612023
 H           -2.982449            2.017877           -3.070693
 H           -3.099143            3.575185           -0.731529
 H           -3.074633            5.978233           -0.138856
 H           -3.045124            8.365403            0.470384
 H           -3.019788           10.748363            1.093963
 H           -2.993861           13.145209            1.714753
 H           -1.692859           15.213897            2.222710
 H            0.766953           15.194850            2.180816
 H            2.016846           13.106087            1.626990
 H            1.983746           10.710964            1.005793
 H            1.952940            8.327478            0.396937
 H            1.930137            5.938255           -0.189280
 H            1.906965            3.530490           -0.738621
 H            0.081622            0.972087           -3.281902
 H            1.367791           -1.097734           -3.825717
 H            2.987470           -2.842347           -3.135579
 H            4.586048           -4.582378           -2.444158
 H            6.184849           -6.323463           -1.759400
 H            7.756577           -8.103709           -1.057622
 H            9.164963           -9.139811            0.723804
 H            9.279927           -8.146822            2.971507
 H            7.979850           -6.089100            3.525231
 H            6.400422           -4.318830            2.820243
 H            4.835953           -2.551190            2.115757
 H            3.273203           -0.781343            1.415547
 H            1.728298            1.011318            0.705837
 H           -1.341024            0.057221            0.405028
 H           -2.025238           -2.257258            0.944458
 H           -2.715744           -4.557225            1.491714
 H           -3.408376           -6.854752            2.047784
 H           -4.103257           -9.163759            2.605910
 H           -5.461545          -11.185336            2.058280

