104

 C           -0.260023           -8.390636           -3.987575
 C           -1.353043           -7.994788           -3.291925
 C           -1.399368           -6.690608           -2.644717
 C           -2.499994           -6.271414           -1.931662
 C           -2.534625           -4.981128           -1.309569
 C           -3.647137           -4.551189           -0.569928
 C           -3.673198           -3.280727            0.026123
 C           -4.789647           -2.835951            0.804782
 C           -4.808208           -1.584963            1.380852
 C           -5.934661           -1.140183            2.188827
 C           -5.952002            0.096600            2.740440
 C           -4.851789            1.011403            2.535292
 C           -3.768770            0.648409            1.795903
 C           -2.666826            1.620948            1.591601
 C           -2.794277            2.608715            0.666818
 C           -1.768847            3.622934            0.488201
 C           -1.902519            4.638764           -0.431655
 C           -0.900682            5.654435           -0.565109
 C           -1.038275            6.707776           -1.482391
 C           -0.061397            7.710275           -1.587462
 C           -0.198119            8.799409           -2.508295
 C            0.759852            9.784463           -2.596021
 C            0.633469           10.900510           -3.523164
 C            1.584745           11.862661           -3.591988
 C            2.757160           11.806551           -2.742049
 C            2.926760           10.789271           -1.863648
 C            1.938225            9.726263           -1.745567
 C            2.092241            8.684809           -0.858321
 C            1.106043            7.651456           -0.747396
 C            1.249077            6.591731            0.161819
 C            0.267958            5.594361            0.273157
 C            0.394998            4.517251            1.209325
 C           -0.585363            3.557806            1.328610
 C           -0.480078            2.467467            2.283029
 C           -1.462401            1.536890            2.415000
 C           -1.331449            0.439729            3.402962
 C           -0.372380           -0.637796            3.149543
 C            0.415979           -0.685768            2.021479
 C            1.330094           -1.764483            1.790486
 C            2.120159           -1.824854            0.631793
 C            3.006594           -2.891437            0.413510
 C            3.812298           -2.972380           -0.768578
 C            4.676662           -4.024913           -0.972910
 C            5.499446           -4.125434           -2.170585
 C            6.347310           -5.166765           -2.351008
 C            6.458336           -6.212766           -1.354388
 C            5.714443           -6.170973           -0.222989
 C            4.785869           -5.076803            0.025193
 C            4.021516           -5.017612            1.168781
 C            3.111379           -3.935531            1.398788
 C            2.322304           -3.874201            2.558002
 C            1.430667           -2.811897            2.771519
 C            0.608918           -2.741246            3.942158
 C           -0.270266           -1.699640            4.139270
 C           -1.111506           -1.635104            5.325658
 C           -1.979118           -0.611929            5.510593
 C           -2.092306            0.444457            4.530371
 C           -3.687010           -0.678627            1.186498
 C           -2.602553           -1.091331            0.445346
 C           -2.549183           -2.398052           -0.139396
 C           -1.428610           -2.835227           -0.863247
 C           -1.396403           -4.110677           -1.448520
 C           -0.256692           -4.572499           -2.184121
 C           -0.241473           -5.819340           -2.768196
 C            0.908952           -6.304497           -3.518234
 C            0.898657           -7.527794           -4.100384
 H           -0.216433           -9.361257           -4.479032
 H           -2.229519           -8.634118           -3.194800
 H           -3.371860           -6.916005           -1.826748
 H           -4.502868           -5.215221           -0.454510
 H           -5.628560           -3.518288            0.936587
 H           -6.756363           -1.840422            2.332933
 H           -6.787287            0.440841            3.348622
 H           -4.921399            1.998003            2.991673
 H           -3.682522            2.675120            0.036335
 H           -2.781132            4.693726           -1.074251
 H           -1.920811            6.750584           -2.120507
 H           -1.085862            8.830602           -3.139601
 H           -0.253367           10.929354           -4.155061
 H            1.499963           12.701329           -4.281277
 H            3.488798           12.607504           -2.836828
 H            3.802749           10.733267           -1.218437
 H            2.971561            8.627306           -0.217056
 H            2.134531            6.545068            0.795737
 H            1.288726            4.478175            1.832025
 H            0.419813            2.423176            2.899159
 H            0.361522            0.103184            1.269296
 H            2.045577           -1.029674           -0.109241
 H            3.725906           -2.174458           -1.505498
 H            5.406164           -3.332348           -2.911257
 H            6.967319           -5.250608           -3.242428
 H            7.156565           -7.025078           -1.549661
 H            5.785295           -6.950477            0.535028
 H            4.093280           -5.798760            1.925459
 H            2.400139           -4.667100            3.301792
 H            0.691306           -3.541843            4.677086
 H           -1.018242           -2.441994            6.051547
 H           -2.617432           -0.553220            6.391190
 H           -2.813243            1.239314            4.722033
 H           -1.750212           -0.426716            0.291640
 H           -0.565442           -2.176380           -0.964075
 H            0.605540           -3.909883           -2.266191
 H            1.775389           -5.647155           -3.587562
 H            1.752697           -7.899330           -4.664152

