104

 C           13.551417           -4.854797            2.495846
 C           14.308691           -3.689250            2.158389
 C           13.705393           -2.622763            1.548676
 C           12.303438           -2.657940            1.238341
 C           11.654197           -1.566239            0.604132
 C           10.300597           -1.602559            0.305625
 C            9.544392           -2.777309            0.651127
 C           10.165258           -3.850732            1.269841
 C           11.550644           -3.816437            1.575293
 C           12.213472           -4.918747            2.214471
 C            8.119644           -2.820925            0.340576
 C            7.496148           -1.788358           -0.258871
 C            8.208382           -0.568266           -0.629381
 C            7.546706            0.495005           -1.238865
 C            6.088606            0.419353           -1.502630
 C            5.652617           -0.139520           -2.772613
 C            4.334288           -0.235308           -3.064099
 C            3.316913            0.215195           -2.123658
 C            1.972567            0.123085           -2.404903
 C            0.984889            0.572540           -1.468551
 C           -0.387885            0.484360           -1.746208
 C           -1.345451            0.930109           -0.821567
 C           -2.749097            0.846640           -1.094950
 C           -3.681470            1.289060           -0.183266
 C           -5.108641            1.211825           -0.449867
 C           -6.015600            1.655618            0.459349
 C           -7.473507            1.584564            0.193155
 C           -8.210367            0.471747            0.591120
 C           -7.578837           -0.639844            1.297267
 C           -8.276301           -1.726853            1.680164
 C           -9.704807           -1.852062            1.411760
 C          -10.403136           -2.979564            1.813702
 C          -11.792786           -3.108622            1.556579
 C          -12.535399           -4.267670            1.966462
 C          -13.875354           -4.361725            1.703610
 C          -14.555391           -3.308231            1.015629
 C          -13.874998           -2.191545            0.611550
 C          -12.468837           -2.060431            0.873466
 C          -11.740605           -0.911399            0.467410
 C          -10.383224           -0.786775            0.721721
 C           -9.619523            0.401071            0.304021
 C          -10.226169            1.451431           -0.365266
 C           -9.490836            2.595667           -0.769907
 C          -10.125575            3.680251           -1.465901
 C           -9.403750            4.777658           -1.849856
 C           -8.006811            4.860925           -1.557890
 C           -7.374912            3.842507           -0.897116
 C           -8.100150            2.672274           -0.486669
 C           -5.579409            2.219555            1.727109
 C           -4.261210            2.311012            2.020774
 C           -3.244123            1.852364            1.084023
 C           -1.899780            1.939726            1.367600
 C           -0.912286            1.486446            0.433082
 C            0.460689            1.573212            0.711422
 C            1.418073            1.128280           -0.213568
 C            2.821989            1.213251            0.059004
 C            3.754212            0.775850           -0.855107
 C            5.181602            0.856070           -0.590079
 C            8.251839            1.678937           -1.611371
 C            7.605241            2.787737           -2.256613
 C            8.311368            3.912114           -2.588726
 C            9.708582            4.001351           -2.299741
 C           10.356372            2.959917           -1.692660
 C            9.642884            1.766149           -1.332818
 C           10.300760            0.678096           -0.702547
 C            9.617970           -0.474982           -0.351089
 H           14.064204           -5.684762            2.979423
 H           15.370778           -3.672420            2.397574
 H           14.272318           -1.730533            1.287780
 H           12.249315           -0.685972            0.353000
 H            9.591787           -4.740009            1.530771
 H           11.627805           -5.801131            2.467497
 H            7.578228           -3.727156            0.614622
 H            6.428762           -1.833162           -0.489012
 H            6.423604           -0.472480           -3.467796
 H            3.992177           -0.652397           -4.011338
 H            1.630753           -0.295406           -3.351336
 H           -0.716537            0.063021           -2.695920
 H           -3.063846            0.422370           -2.048294
 H           -5.423918            0.787010           -1.403371
 H           -6.509353           -0.555941            1.505745
 H           -7.794574           -2.552615            2.205100
 H           -9.888707           -3.786181            2.335796
 H          -12.008317           -5.064706            2.488598
 H          -14.448212           -5.235423            2.010322
 H          -15.621430           -3.416786            0.822617
 H          -14.382502           -1.384122            0.086227
 H          -12.277293           -0.117605           -0.055960
 H          -11.292972            1.413950           -0.595652
 H          -11.190544            3.605476           -1.679604
 H           -9.875000            5.603203           -2.380936
 H           -7.460993            5.749241           -1.872582
 H           -6.309287            3.901989           -0.669502
 H           -6.350412            2.560010            2.418682
 H           -3.919046            2.731005            2.966791
 H           -1.558046            2.358924            2.313824
 H            0.789274            1.993434            1.661719
 H            3.136811            1.635213            1.013410
 H            5.497005            1.277632            0.364906
 H            6.539046            2.713296           -2.476809
 H            7.825493            4.755826           -3.076660
 H           10.239906            4.911613           -2.573323
 H           11.420666            3.014047           -1.469373
 H           11.369248            0.769141           -0.496077

