96

 C           13.528506            3.317210            1.591882
 C           14.300919            2.382246            0.846174
 C           13.715610            1.249857            0.335919
 C           12.324174            0.985985            0.536073
 C           11.556906            1.921447            1.277879
 C           12.191501            3.091925            1.804435
 C           10.162410            1.694279            1.488597
 C            9.542400            0.576531            0.975951
 C            8.116652            0.340574            1.163206
 C            7.500594           -0.755514            0.660471
 C            6.042097           -0.939511            0.857362
 C            5.599210           -1.726605            1.996608
 C            4.278681           -1.894699            2.243410
 C            3.266651           -1.298288            1.382053
 C            1.920365           -1.437858            1.633824
 C            0.938553           -0.844234            0.775043
 C           -0.435683           -0.963056            1.034303
 C           -1.387420           -0.375363            0.186238
 C           -2.791929           -0.470576            0.452107
 C           -3.718006            0.107289           -0.387363
 C           -5.145409            0.031937           -0.119842
 C           -6.045683            0.607452           -0.958880
 C           -7.501936            0.558502           -0.681800
 C           -8.104334            1.590126           -0.043871
 C           -9.527186            1.575977            0.270607
 C          -10.133266            2.627390            0.921774
 C          -11.524942            2.588395            1.241935
 C          -12.144840            3.680488            1.929710
 C          -13.478864            3.638005            2.249260
 C          -14.263005            2.504160            1.893904
 C          -13.691937            1.447122            1.229144
 C          -12.304009            1.457618            0.883756
 C          -11.675495            0.360953            0.190223
 C          -10.304405            0.420070           -0.109687
 C           -9.659033           -0.670742           -0.801741
 C           -8.261696           -0.622245           -1.104196
 C           -7.671454           -1.686220           -1.783225
 C           -8.435892           -2.803680           -2.166841
 C           -9.788394           -2.867824           -1.874829
 C          -10.419632           -1.803975           -1.187442
 C          -11.826687           -1.840447           -0.866060
 C          -12.421958           -0.808976           -0.209354
 C           -5.603751            1.306393           -2.154676
 C           -4.285024            1.406094           -2.444221
 C           -3.274075            0.820852           -1.574021
 C           -1.928769            0.929910           -1.844747
 C           -0.947284            0.347207           -0.978249
 C            0.426856            0.468760           -1.235991
 C            1.378896           -0.104701           -0.378667
 C            2.784460            0.033502           -0.617979
 C            3.711210           -0.532249            0.228852
 C            5.140472           -0.377289            0.010853
 C            8.246144           -1.770083           -0.090556
 C            9.646197           -1.563250           -0.299142
 C           10.393691           -2.521100           -1.030752
 C            9.746414           -3.672722           -1.538110
 C            8.390755           -3.861102           -1.325020
 C            7.639091           -2.913707           -0.605302
 C           11.803848           -2.291972           -1.239518
 C           12.413918           -1.181970           -0.744265
 C           11.680601           -0.191495            0.008720
 C           10.307056           -0.391045            0.225032
 H           14.016825            4.207232            1.986085
 H           15.359689            2.582800            0.690004
 H           14.307031            0.531434           -0.234333
 H           11.590287            3.798533            2.375046
 H            9.598043            2.428057            2.063271
 H            7.558309            1.092115            1.724434
 H            6.365334           -2.166821            2.634755
 H            3.930945           -2.480713            3.094120
 H            1.572742           -2.004370            2.497550
 H           -0.769584           -1.518766            1.910409
 H           -3.111807           -1.011056            1.342899
 H           -5.465407           -0.497542            0.777919
 H           -7.536047            2.469187            0.265628
 H           -9.559697            3.508627            1.207526
 H          -11.534938            4.543281            2.194292
 H          -13.955980            4.463184            2.775953
 H          -15.319159            2.492836            2.158503
 H          -14.292342            0.578123            0.954488
 H           -6.607645           -1.662321           -2.024583
 H           -7.950764           -3.622225           -2.698142
 H          -10.375761           -3.735161           -2.171803
 H          -12.396829           -2.719777           -1.164595
 H          -13.486398           -0.841779            0.031853
 H           -6.369149            1.740003           -2.798051
 H           -3.938132            1.927086           -3.336538
 H           -1.581672            1.466103           -2.727859
 H            0.760591            1.020156           -2.114935
 H            3.104876            0.605232           -1.488852
 H            5.460817            0.209045           -0.850680
 H           10.323660           -4.407633           -2.096899
 H            7.892904           -4.748192           -1.715924
 H            6.571976           -3.084702           -0.455465
 H           12.363973           -3.034700           -1.807046
 H           13.480567           -1.013134           -0.905693

