96

 C          -13.539720           -2.945564            1.782665
 C          -12.254619           -3.516651            1.560810
 C          -11.223196           -2.741503            1.090867
 C          -11.413371           -1.351152            0.815098
 C          -12.695920           -0.785487            1.037533
 C          -13.755428           -1.614473            1.527459
 C          -12.921220            0.600135            0.772443
 C          -11.908156            1.404346            0.299871
 C          -12.122364            2.822019            0.022432
 C          -11.130835            3.609012           -0.444674
 C           -9.793506            3.081220           -0.689773
 C           -9.537986            1.700298           -0.423910
 C          -10.595270            0.847260            0.068358
 C          -10.349376           -0.512188            0.322229
 C           -9.023679           -1.030821            0.078904
 C           -8.020182           -0.234587           -0.377512
 C           -8.241163            1.167542           -0.641663
 C           -7.210422            2.025220           -1.111985
 C           -5.832247            1.519867           -1.316560
 C           -5.441307            1.131455           -2.662172
 C           -4.186040            0.691280           -2.913438
 C           -3.190733            0.598308           -1.853756
 C           -1.904174            0.173019           -2.097104
 C           -0.936542            0.090584           -1.042862
 C            0.378675           -0.337318           -1.280920
 C            1.317125           -0.413301           -0.239475
 C            2.660491           -0.854514           -0.469661
 C            3.572805           -0.932670            0.558946
 C            4.932726           -1.400084            0.342081
 C            5.815588           -1.488497            1.371347
 C            7.188434           -2.009000            1.168870
 C            8.233729           -1.161660            0.712550
 C            8.034204            0.245885            0.460379
 C            9.051291            1.031741            0.016151
 C           10.370680            0.496382           -0.225588
 C           10.595776           -0.868753            0.016901
 C           11.901518           -1.442634           -0.213872
 C           12.928213           -0.649023           -0.674844
 C           12.724190            0.742029           -0.928181
 C           13.797759            1.559792           -1.406470
 C           13.602732            2.896201           -1.650063
 C           12.325074            3.483882           -1.428130
 C           11.280378            2.719702           -0.969941
 C           11.448990            1.324213           -0.706045
 C           12.093976           -2.865845            0.050944
 C           11.088818           -3.642803            0.505387
 C            9.758059           -3.098067            0.749133
 C            9.523849           -1.711043            0.495941
 C            8.717407           -3.898283            1.216331
 C            7.439906           -3.353689            1.424006
 C            5.426566           -1.094481            2.715829
 C            4.172897           -0.648915            2.966124
 C            3.177942           -0.554753            1.906414
 C            1.891650           -0.127926            2.149487
 C            0.924343           -0.044918            1.095314
 C           -0.391163            0.383045            1.333281
 C           -1.329428            0.458824            0.292030
 C           -2.673503            0.898450            0.522320
 C           -3.586158            0.974775           -0.505926
 C           -4.948160            1.435850           -0.288077
 C           -7.482725            3.363199           -1.379911
 C           -8.767012            3.891387           -1.170990
 H          -14.341044           -3.581663            2.155465
 H          -12.106940           -4.574850            1.769959
 H          -10.237553           -3.177885            0.920329
 H          -14.734040           -1.165825            1.692599
 H          -13.915517            1.007695            0.952724
 H          -13.120937            3.217916            0.209595
 H          -11.294032            4.666896           -0.652445
 H           -8.845629           -2.090671            0.272972
 H           -7.021689           -0.637912           -0.558369
 H           -6.192976            1.207709           -3.447711
 H           -3.880439            0.394015           -3.916506
 H           -1.592995           -0.108379           -3.102973
 H            0.677307           -0.616367           -2.291257
 H            2.944423           -1.132362           -1.484589
 H            5.214233           -1.684000           -0.672233
 H            7.040458            0.661432            0.639751
 H            8.889320            2.095664           -0.169409
 H           13.917067           -1.069610           -0.854984
 H           14.770100            1.097987           -1.572268
 H           14.414717            3.523849           -2.014105
 H           12.193773            4.545972           -1.628299
 H           10.300278            3.168667           -0.799957
 H           13.087482           -3.274531           -0.135452
 H           11.235449           -4.705019            0.703315
 H            8.885904           -4.955234            1.419628
 H            6.636574           -3.997243            1.784476
 H            6.177952           -1.171892            3.501574
 H            3.868423           -0.348185            3.968516
 H            1.580646            0.154024            3.155278
 H           -0.689787            0.662082            2.343646
 H           -2.957641            1.176065            1.537265
 H           -5.230698            1.717299            0.726670
 H           -6.690850            4.014537           -1.751629
 H           -8.952024            4.943506           -1.384606

