68

 C          -12.437802            0.752395            0.582897
 C          -11.518191            1.601273            0.020177
 C          -10.157882            1.189344           -0.143679
 C           -9.176580            2.052326           -0.727497
 C           -7.878828            1.635937           -0.871157
 C           -7.485043            0.329688           -0.437559
 C           -6.070249           -0.077043           -0.587196
 C           -5.772766           -1.293635           -1.327229
 C           -4.494393           -1.710570           -1.484402
 C           -3.379838           -0.960455           -0.921298
 C           -2.074399           -1.371149           -1.069701
 C           -0.990677           -0.618800           -0.508840
 C            0.343332           -1.028879           -0.653883
 C            1.396032           -0.284324           -0.098144
 C            2.760470           -0.695371           -0.238101
 C            3.786900            0.039569            0.312804
 C            5.174320           -0.368011            0.175213
 C            6.182414            0.365732            0.719193
 C            7.592277           -0.051868            0.556111
 C            8.406050           -0.264799            1.713341
 C            9.704188           -0.684857            1.578322
 C           10.267847           -0.909942            0.281795
 C           11.618754           -1.350138            0.112514
 C           12.128932           -1.559210           -1.144246
 C           11.319831           -1.342186           -2.298117
 C           10.021078           -0.920603           -2.165650
 C            9.463552           -0.693013           -0.866922
 C            8.112629           -0.258743           -0.702568
 C            5.888834            1.582243            1.459699
 C            4.611269            2.004781            1.612206
 C            3.494052            1.258010            1.049802
 C            2.188648            1.671422            1.195030
 C            1.104466            0.921244            0.632433
 C           -0.230239            1.331524            0.776367
 C           -1.282997            0.586836            0.221548
 C           -2.648857            0.994972            0.363500
 C           -3.675260            0.257423           -0.183661
 C           -5.064609            0.661022           -0.045172
 C           -8.411966           -0.521061            0.122139
 C           -9.770750           -0.107683            0.282847
 C          -10.751299           -0.971600            0.867482
 C          -12.049203           -0.550700            1.011996
 H          -13.475039            1.057508            0.710581
 H          -11.805460            2.598185           -0.310066
 H           -9.482064            3.045703           -1.054192
 H           -7.128012            2.285308           -1.320073
 H           -6.611168           -1.845982           -1.751258
 H           -4.258876           -2.619882           -2.037637
 H           -1.837785           -2.281979           -1.619506
 H            0.567288           -1.941181           -1.206396
 H            2.970002           -1.609285           -0.793649
 H            5.377178           -1.286136           -0.376631
 H            7.969825           -0.098664            2.697531
 H           10.327245           -0.857539            2.455258
 H           12.229568           -1.515450            0.998503
 H           13.155788           -1.893542           -1.281930
 H           11.752002           -1.517575           -3.281960
 H            9.393567           -0.752991           -3.039648
 H            7.503820           -0.092375           -1.590728
 H            6.729237            2.139375            1.873358
 H            4.378650            2.918739            2.159141
 H            1.952744            2.582932            1.744035
 H           -0.453932            2.243737            1.329183
 H           -2.858480            1.908687            0.919381
 H           -5.270498            1.572553            0.516209
 H           -8.123555           -1.515811            0.459960
 H          -10.444695           -1.964171            1.193896
 H          -12.801196           -1.201467            1.455346

