80

 C           10.954455            0.123759            3.914739
 C           11.312485            0.003055            2.605973
 C           10.341595            0.203662            1.554121
 C           10.685899            0.087913            0.200181
 C            9.728470            0.281829           -0.806444
 C           10.079739            0.172215           -2.203824
 C            9.142267            0.362649           -3.173024
 C            7.783234            0.667098           -2.823951
 C            7.406197            0.774665           -1.514099
 C            5.994008            1.074307           -1.176042
 C            5.608939            2.470617           -1.046737
 C            4.326109            2.807175           -0.775919
 C            3.297380            1.789868           -0.606906
 C            1.983845            2.116673           -0.355328
 C            0.983369            1.103199           -0.195850
 C           -0.359889            1.426214            0.051841
 C           -1.329679            0.424089            0.210267
 C           -2.701180            0.741873            0.476037
 C           -3.644200           -0.247722            0.641029
 C           -5.032988            0.061356            0.942873
 C           -5.948070           -0.927556            1.116335
 C           -7.355555           -0.626630            1.472060
 C           -8.365376           -0.573819            0.430598
 C           -8.066800           -0.811011           -0.919116
 C           -9.063645           -0.743381           -1.903031
 C           -8.771661           -0.984675           -3.297939
 C           -9.754363           -0.906900           -4.238124
 C          -11.104266           -0.582958           -3.860430
 C          -11.421232           -0.351271           -2.556085
 C          -10.408922           -0.424831           -1.526811
 C          -10.710279           -0.191248           -0.177986
 C           -9.713443           -0.262795            0.806439
 C          -10.020166           -0.027441            2.198698
 C           -9.044775           -0.097431            3.146529
 C           -7.690558           -0.399999            2.778358
 C           -5.565067           -2.324032            0.981095
 C           -4.284170           -2.661256            0.702130
 C           -3.255190           -1.644557            0.529365
 C           -1.942799           -1.971793            0.273190
 C           -0.941847           -0.958531            0.112091
 C            0.400999           -1.281544           -0.136455
 C            1.371444           -0.279262           -0.293594
 C            2.743502           -0.596678           -0.555974
 C            3.687336            0.393289           -0.716496
 C            5.078211            0.084838           -1.008878
 C            8.376045            0.595211           -0.448825
 C            8.034820            0.716310            0.906061
 C            8.992901            0.527922            1.912612
 C            8.656642            0.649665            3.313014
 C            9.601532            0.454869            4.274861
 H           11.676987           -0.026754            4.715574
 H           12.332491           -0.247742            2.318939
 H           11.711148           -0.157486           -0.074789
 H           11.113029           -0.064580           -2.453822
 H            9.395448            0.286657           -4.229808
 H            7.061759            0.806477           -3.628722
 H            6.386698            3.223204           -1.177302
 H            4.022867            3.849565           -0.678965
 H            1.676661            3.159030           -0.273531
 H           -0.655985            2.472656            0.122139
 H           -2.981680            1.792395            0.550696
 H           -5.309905            1.112149            1.031736
 H           -7.041804           -1.050257           -1.209622
 H           -7.745415           -1.228839           -3.570060
 H           -9.545585           -1.086127           -5.291488
 H          -11.858116           -0.528815           -4.644487
 H          -12.438494           -0.104746           -2.255792
 H          -11.732630            0.051030            0.110375
 H          -11.051049            0.204840            2.462559
 H           -9.263787            0.074934            4.199606
 H           -6.938363           -0.443304            3.565850
 H           -6.342693           -3.076123            1.115413
 H           -3.982491           -3.703778            0.601901
 H           -1.636405           -3.014231            0.189407
 H            0.696955           -2.327959           -0.207773
 H            3.024297           -1.647118           -0.630851
 H            5.356433           -0.965828           -1.095391
 H            7.006924            0.959823            1.182567
 H            7.628385            0.900488            3.571291
 H            9.359217            0.543640            5.332523

