100

 C           18.718527           -1.742722           -0.422432
 C           18.139631           -2.525857           -1.496635
 C           16.816233           -2.450461           -1.772363
 C           15.935135           -1.581661           -1.002212
 C           14.590934           -1.497698           -1.278184
 C           13.741808           -0.636469           -0.506597
 N           12.412930           -0.569275           -0.787653
 C           11.644131            0.256376           -0.026307
 C           10.235378            0.347778           -0.275766
 C            9.441950            1.164226            0.496553
 C            8.007344            1.250100            0.277082
 C            7.220693            2.045520            1.050214
 C            5.758119            2.107176            0.839589
 C            5.139193            3.404747            0.621317
 C            3.807906            3.503618            0.395444
 C            2.956409            2.322598            0.359981
 C            1.605677            2.403940            0.106398
 C            0.786702            1.228771            0.063040
 C           -0.589082            1.299365           -0.205258
 C           -1.379262            0.140243           -0.250885
 C           -2.785007            0.200351           -0.519393
 C           -3.553784           -0.941789           -0.552899
 C           -4.985185           -0.892029           -0.799407
 C           -5.736150           -2.026025           -0.814735
 C           -7.197831           -1.970501           -1.033501
 C           -7.998069           -1.205494           -0.243977
 C           -9.432891           -1.133439           -0.468005
 C          -10.242037           -0.352433            0.324364
 C          -11.651522           -0.277289            0.073016
 N          -12.437041            0.510721            0.856904
 C          -13.766325            0.562463            0.574118
 C          -14.633327            1.382980            1.369811
 C          -15.978154            1.450862            1.092357
 C          -16.877250            2.278120            1.887124
 C          -18.200826            2.338849            1.608896
 C          -18.762085            1.580958            0.507600
 C          -17.974499            0.797020           -0.265840
 C          -16.542851            0.688672           -0.015589
 C          -15.737011           -0.107555           -0.794901
 C          -14.330217           -0.200459           -0.529444
 N          -13.546432           -0.993101           -1.308753
 C          -12.216418           -1.044260           -1.026405
 C          -11.349319           -1.861215           -1.825866
 C           -9.999994           -1.907279           -1.565561
 C           -9.096496           -2.717928           -2.372118
 C           -7.767069           -2.749493           -2.122841
 C           -5.115710           -3.323845           -0.601625
 C           -3.785561           -3.421072           -0.369096
 C           -2.936895           -2.238226           -0.324005
 C           -1.587069           -2.318766           -0.066480
 C           -0.769379           -1.142744           -0.018285
 C            0.605782           -1.213365            0.251717
 C            1.396092           -0.054119            0.297004
 C            2.801671           -0.115054            0.564891
 C            3.571927            1.026421            0.592884
 C            5.003702            0.975104            0.835585
 C            7.806646            2.847844            2.113606
 C            9.137108            2.806570            2.356001
 C           10.025533            1.960662            1.569062
 C           11.375185            1.901254            1.825215
 C           12.225867            1.046515            1.047758
 N           13.555797            0.980590            1.327637
 C           14.322856            0.150250            0.571189
 C           15.728652            0.040020            0.835424
 C           16.517288           -0.794855            0.079278
 C           17.947748           -0.920762            0.328075
 H           19.788896           -1.841917           -0.245184
 H           18.806232           -3.171550           -2.067329
 H           16.366066           -3.033648           -2.575761
 H           14.129645           -2.075966           -2.082132
 H            9.824201           -0.253167           -1.090348
 H            7.587142            0.652235           -0.532940
 H            5.783483            4.283528            0.636428
 H            3.331696            4.469906            0.228108
 H            1.130405            3.368488           -0.071721
 H           -1.051581            2.270543           -0.381145
 H           -3.234920            1.177668           -0.694130
 H           -5.432826            0.087264           -0.971070
 H           -7.589248           -0.623939            0.583590
 H           -9.843312            0.231311            1.157578
 H          -14.184973            1.943938            2.193237
 H          -16.440198            2.842642            2.710957
 H          -18.881058            2.953423            2.197676
 H          -19.833377            1.667208            0.329248
 H          -18.381333            0.222326           -1.097925
 H          -16.134162           -0.687452           -1.631223
 H          -11.799232           -2.433758           -2.640321
 H           -9.535953           -3.294679           -3.186865
 H           -7.084736           -3.345618           -2.729291
 H           -5.758157           -4.203700           -0.625981
 H           -3.308103           -4.387208           -0.204405
 H           -1.111149           -3.283352            0.109891
 H            1.068118           -2.184550            0.428167
 H            3.250535           -1.092329            0.742628
 H            5.448995           -0.004311            1.013060
 H            7.135599            3.469422            2.707006
 H            9.588685            3.401145            3.151232
 H           11.837591            2.490733            2.620476
 H           16.139240            0.638541            1.652017
 H           18.367982           -0.326923            1.139960

