100

 C          -10.065720            6.895553           -3.859862
 C           -8.623830            7.037663           -3.801978
 C           -7.878553            6.218819           -3.022719
 C           -8.499577            5.172914           -2.219605
 C           -7.750183            4.338731           -1.424230
 C           -8.382767            3.314194           -0.643467
 N           -7.626302            2.494066            0.133558
 C           -8.267133            1.536963            0.858269
 C           -7.508824            0.643982            1.686808
 C           -8.137811           -0.325657            2.432134
 C           -9.590451           -0.453079            2.391523
 C          -10.342578            0.383612            1.599341
 C           -9.713936            1.399879            0.807950
 N          -10.471380            2.218761            0.027187
 C           -9.830347            3.172169           -0.700612
 C          -10.584414            4.058152           -1.540419
 C           -9.950129            5.029054           -2.278956
 C          -10.696913            5.940264           -3.137276
 C          -10.222446           -1.482411            3.206044
 C           -9.484785           -2.311798            3.981021
 C           -8.043085           -2.200998            4.017339
 C           -7.395388           -1.259229            3.281909
 C           -5.916675           -1.166767            3.335685
 C           -5.330035           -0.232402            4.282671
 C           -3.985674           -0.135831            4.407304
 C           -3.091361           -0.953886            3.599526
 C           -1.722750           -0.875030            3.724521
 C           -0.855940           -1.682943            2.918819
 C            0.540389           -1.609812            3.039817
 C            1.379909           -2.400792            2.240072
 C            2.806578           -2.335739            2.354444
 C            3.621785           -3.111589            1.560849
 C            5.071153           -3.060281            1.670577
 C            5.859588           -3.835985            0.881792
 C            7.336823           -3.819051            1.006967
 C            7.962407           -4.728851            1.799514
 C            9.401299           -4.722582            1.946436
 C           10.158346           -3.803616            1.301931
 C            9.551131           -2.803665            0.433869
 C           10.322908           -1.871138           -0.220998
 C            9.718799           -0.901798           -1.086517
 N           10.495054            0.015732           -1.727397
 C            9.876727            0.908833           -2.545144
 C           10.650807            1.895940           -3.242375
 C           10.039320            2.802482           -4.075544
 C           10.806744            3.812085           -4.794449
 C           10.197835            4.701017           -5.614194
 C            8.759855            4.674929           -5.799315
 C            7.996058            3.759782           -5.157449
 C            8.592643            2.775296           -4.263134
 C            7.824319            1.842143           -3.608734
 C            8.433014            0.883312           -2.731066
 N            7.657894           -0.029573           -2.088357
 C            8.276238           -0.921536           -1.266832
 C            7.496891           -1.899022           -0.563393
 C            8.102112           -2.812946            0.267378
 C            5.274128           -4.731696           -0.102234
 C            3.930106           -4.815463           -0.239704
 C            3.034923           -4.015424            0.584912
 C            1.666312           -4.096469            0.461708
 C            0.798882           -3.300182            1.278314
 C           -0.597476           -3.375590            1.159540
 C           -1.437150           -2.586876            1.961449
 C           -2.863936           -2.657101            1.852464
 C           -3.678857           -1.874717            2.639991
 C           -5.128677           -1.944616            2.548668
 H          -10.615376            7.582116           -4.502909
 H           -8.168925            7.821976           -4.406010
 H           -6.793707            6.312552           -2.969675
 H           -6.662734            4.424929           -1.359350
 H           -6.420198            0.765635            1.698859
 H          -11.430964            0.301929            1.547752
 H          -11.669015            3.929882           -1.567501
 H          -11.779872            5.820459           -3.171661
 H          -11.309184           -1.555281            3.166452
 H           -9.946994           -3.083559            4.596525
 H           -7.495969           -2.897987            4.652901
 H           -6.009568            0.375107            4.879931
 H           -3.528574            0.556340            5.114709
 H           -1.268485           -0.191157            4.441411
 H            0.980514           -0.925786            3.765383
 H            3.233576           -1.652405            3.088574
 H            5.498712           -2.380949            2.408253
 H            7.398839           -5.483565            2.348804
 H            9.845447           -5.479345            2.593105
 H           11.242876           -3.782821            1.407869
 H           11.408977           -1.840401           -0.105112
 H           11.731880            1.895705           -3.084798
 H           11.886473            3.820064           -4.644553
 H           10.762977            5.458220           -6.156704
 H            8.323328            5.414645           -6.469522
 H            6.913956            3.727803           -5.286039
 H            6.739358            1.797513           -3.731535
 H            6.411982           -1.886533           -0.714854
 H            5.953903           -5.323455           -0.714614
 H            3.474117           -5.482887           -0.970987
 H            1.212514           -4.770209           -0.264836
 H           -1.037471           -4.056266            0.430915
 H           -3.291278           -3.348900            1.126720
 H           -5.556908           -2.643658            1.830361

