100

 C            9.385445           -5.468828            0.504029
 C            7.992141           -5.436684            0.109252
 C            7.379122           -4.262159           -0.170795
 C            8.093428           -2.994134           -0.086573
 C            9.497547           -3.030616            0.299164
 C           10.102371           -4.323601            0.592349
 C           10.230287           -1.869964            0.390220
 C            9.623700           -0.605081            0.104279
 N           10.368088            0.532282            0.201856
 C            9.761740            1.715747           -0.075984
 C           10.502455            2.941449            0.018050
 C            9.898907            4.143991           -0.262627
 C           10.631882            5.400759           -0.171332
 C           10.032184            6.582063           -0.449879
 C            8.638612            6.630708           -0.848177
 C            7.908130            5.495456           -0.949785
 C            8.496272            4.192741           -0.662635
 C            7.761082            3.035863           -0.761296
 C            8.361497            1.764211           -0.470798
 N            7.619738            0.630815           -0.565889
 C            8.223015           -0.556295           -0.282133
 C            7.473882           -1.787124           -0.358445
 C            6.037516           -1.720925           -0.719744
 C            5.688283           -1.700734           -2.130960
 C            4.390337           -1.666236           -2.514025
 C            3.312692           -1.643315           -1.534294
 C            1.988223           -1.615418           -1.908494
 C            0.939986           -1.592217           -0.931374
 C           -0.413154           -1.569212           -1.302715
 C           -1.430970           -1.550535           -0.336098
 C           -2.815501           -1.533512           -0.703045
 C           -3.807346           -1.517889            0.252219
 C           -5.215984           -1.505992           -0.108324
 C           -6.180394           -1.500092            0.848376
 C           -7.619006           -1.508750            0.490643
 C           -8.259775           -0.252541            0.184745
 N           -7.550812            0.908402            0.242813
 C           -8.192733            2.065687           -0.060551
 C           -7.478421            3.310487           -0.011550
 C           -8.110936            4.489619           -0.324585
 C           -7.405920            5.765157           -0.285524
 C           -8.035228            6.922107           -0.598820
 C           -9.433840            6.924663           -0.982165
 C          -10.139589            5.770604           -1.034430
 C           -9.518823            4.492472           -0.708888
 C          -10.230149            3.317487           -0.759641
 C           -9.598352            2.069345           -0.438963
 N          -10.309679            0.913280           -0.492448
 C           -9.665433           -0.247999           -0.185942
 C          -10.383004           -1.485808           -0.233953
 C           -9.750642           -2.670215            0.065751
 C          -10.468078           -3.937395            0.011757
 C           -9.848973           -5.106259            0.301337
 C           -8.450501           -5.125136            0.678492
 C           -7.735934           -3.976633            0.743947
 C           -8.342780           -2.686869            0.438879
 C           -5.830048           -1.487584            2.259633
 C           -4.531732           -1.495740            2.642908
 C           -3.454290           -1.515818            1.662872
 C           -2.129530           -1.529988            2.037244
 C           -1.081371           -1.549803            1.060079
 C            0.271997           -1.568949            1.431492
 C            1.289548           -1.592951            0.464864
 C            2.674025           -1.620593            0.831903
 C            3.665443           -1.647491           -0.123493
 C            5.073529           -1.686306            0.236983
 H            9.828351           -6.439540            0.723934
 H            7.461263           -6.385975            0.045932
 H            6.329193           -4.228919           -0.470586
 H           11.152001           -4.328779            0.886089
 H           11.283816           -1.874586            0.680723
 H           11.550851            2.877757            0.318733
 H           11.678228            5.347649            0.129545
 H           10.572387            7.525964           -0.384352
 H            8.207541            7.608602           -1.059937
 H            6.859516            5.515716           -1.247497
 H            6.709205            3.041990           -1.058482
 H            6.503127           -1.701363           -2.854153
 H            4.111079           -1.649471           -3.567248
 H            1.709368           -1.610018           -2.961854
 H           -0.678660           -1.565501           -2.359590
 H           -3.067621           -1.531625           -1.763219
 H           -5.468644           -1.493890           -1.168432
 H           -6.425619            3.277874            0.280810
 H           -6.355131            5.746718            0.004666
 H           -7.516495            7.879867           -0.573515
 H           -9.889781            7.884100           -1.224105
 H          -11.191278            5.756195           -1.320557
 H          -11.285039            3.292985           -1.042689
 H          -11.438185           -1.451168           -0.516224
 H          -11.519781           -3.904114           -0.272573
 H          -10.376442           -6.058517            0.260319
 H           -7.999767           -6.090744            0.905305
 H           -6.680767           -3.981511            1.026644
 H           -6.644261           -1.458652            2.982930
 H           -4.251830           -1.482687            3.696026
 H           -1.850486           -1.525871            3.090554
 H            0.537622           -1.564744            2.488310
 H            2.926165           -1.618866            1.892019
 H            5.326099           -1.681073            1.297112

