102

 C           -9.877886            3.132325            0.043661
 C          -10.478309            1.935195            0.285777
 C           -9.704281            0.734725            0.156069
 C          -10.009710           -0.607419            0.317045
 C          -11.191853           -1.361813            0.694786
 C          -11.417806           -2.640605            0.154420
 C          -12.564469           -3.353148            0.508812
 C          -13.488298           -2.800312            1.402204
 C          -13.260961           -1.532734            1.947713
 C          -12.116513           -0.811829            1.600123
 O           -8.878364           -1.382455            0.021097
 C           -7.846607           -0.500042           -0.327446
 C           -6.597614           -1.162846           -0.672072
 C           -5.864191           -0.740805           -1.793973
 C           -4.654154           -1.363656           -2.106434
 C           -4.177729           -2.413214           -1.313956
 C           -4.916551           -2.847154           -0.208400
 C           -6.125399           -2.227353            0.115060
 C           -8.302137            0.806972           -0.247766
 C           -7.704174            2.102087           -0.457872
 C           -6.265970            2.216027           -0.782947
 C           -5.893990            2.804148           -2.060350
 C           -4.591457            2.945067           -2.401642
 C           -3.525153            2.518825           -1.505556
 C           -2.195763            2.661362           -1.834110
 C           -1.159877            2.236947           -0.939338
 C            0.198836            2.387544           -1.258881
 C            1.203882            1.966943           -0.373820
 C            2.594220            2.113705           -0.687941
 C            3.572646            1.696053            0.186767
 C            4.986970            1.831286           -0.122702
 C            5.940071            1.401442            0.746652
 C            7.380950            1.533103            0.438123
 C            7.962424            2.764949            0.321540
 C            9.371301            2.918591            0.042094
 C           10.184845            1.840363           -0.125390
 C            9.620675            0.525421           -0.025087
 C           10.163867           -0.745438           -0.130704
 C           11.481666           -1.288726           -0.411727
 C           12.355975           -0.595437           -1.267611
 C           13.624506           -1.114543           -1.534423
 C           14.027430           -2.323093           -0.957113
 C           13.156914           -3.017743           -0.110686
 C           11.886636           -2.507181            0.162534
 O            9.160494           -1.701158            0.086971
 C            7.964044           -1.007342            0.313992
 C            6.815152           -1.873377            0.536274
 C            5.604522           -1.618434           -0.129661
 C            4.498260           -2.438290            0.102569
 C            4.596660           -3.519727            0.984095
 C            5.806850           -3.786238            1.633092
 C            6.916928           -2.968358            1.411879
 C            8.198173            0.358188            0.263921
 C            5.564924            0.806704            2.020256
 C            4.261521            0.668335            2.357137
 C            3.198756            1.096882            1.458090
 C            1.869112            0.946161            1.779705
 C            0.834859            1.370534            0.883075
 C           -0.522891            1.219775            1.202920
 C           -1.527925            1.642677            0.318723
 C           -2.916712            1.501721            0.639014
 C           -3.896348            1.926554           -0.230716
 C           -5.308891            1.798918            0.087998
 C           -8.483432            3.217416           -0.323443
 H          -10.431207            4.066981            0.125548
 H          -11.526672            1.853246            0.563660
 H          -10.693204           -3.066938           -0.540460
 H          -12.740550           -4.341367            0.086475
 H          -14.383406           -3.357183            1.673501
 H          -13.977790           -1.106469            2.648135
 H          -11.934761            0.169629            2.036467
 H           -6.237516            0.076497           -2.412403
 H           -4.078874           -1.026245           -2.967601
 H           -3.230458           -2.891624           -1.557713
 H           -4.548348           -3.668894            0.403350
 H           -6.706093           -2.562486            0.974512
 H           -6.699277            3.117785           -2.724381
 H           -4.299081            3.382239           -3.355999
 H           -1.904036            3.103512           -2.786213
 H            0.477344            2.840956           -2.209745
 H            2.860187            2.567131           -1.642408
 H            5.253614            2.281837           -1.078556
 H            7.373128            3.673072            0.448633
 H            9.759633            3.934181           -0.024229
 H           11.249820            1.938187           -0.323750
 H           12.038792            0.337898           -1.731176
 H           14.300634           -0.577928           -2.198575
 H           15.016840           -2.724508           -1.169200
 H           13.470513           -3.960074            0.336442
 H           11.202563           -3.048026            0.816608
 H            5.529142           -0.777698           -0.820765
 H            3.556141           -2.230182           -0.403570
 H            3.730850           -4.154650            1.164300
 H            5.884213           -4.632820            2.313197
 H            7.862230           -3.173322            1.913566
 H            6.368691            0.477969            2.679583
 H            3.965545            0.227586            3.309003
 H            1.575052            0.498714            2.728945
 H           -0.802108            0.768586            2.154849
 H           -3.181797            1.046394            1.593229
 H           -5.573292            1.350295            1.046500
 H           -8.065013            4.211639           -0.479383

