102

 C            5.005044           -2.681068            2.906968
 C            5.323291           -1.358349            2.962813
 C            6.076726           -0.780302            1.886775
 C            6.561594            0.492354            1.627001
 C            6.483084            1.787483            2.277086
 C            7.457444            2.769776            2.020380
 C            7.377294            4.012661            2.649666
 C            6.328973            4.286650            3.534818
 C            5.355420            3.314667            3.786610
 C            5.425489            2.068566            3.160318
 O            7.288330            0.481049            0.422356
 C            7.230320           -0.823441           -0.081691
 C            7.940149           -1.036518           -1.335441
 C            9.324998           -0.805136           -1.390895
 C           10.030227           -1.044752           -2.570981
 C            9.358086           -1.517829           -3.703020
 C            7.980380           -1.738914           -3.659746
 C            7.256773           -1.491463           -2.482520
 C            5.789017           -1.683860           -2.480006
 C            5.266500           -3.011696           -2.757876
 C            3.931251           -3.235376           -2.783025
 C            2.978984           -2.159461           -2.544556
 C            1.618019           -2.367222           -2.577646
 C            0.697175           -1.292867           -2.353025
 C           -0.692254           -1.492369           -2.389951
 C           -1.583865           -0.429235           -2.181533
 C           -3.003504           -0.623064           -2.206702
 C           -3.871174            0.426696           -2.004817
 C           -5.313293            0.237367           -1.996892
 C           -6.154767            1.283685           -1.789706
 C           -7.624502            1.099837           -1.746754
 C           -8.398856            1.494667           -2.848788
 C           -9.783016            1.314884           -2.840845
 C          -10.411078            0.745376           -1.727504
 C           -9.653338            0.354213           -0.624063
 C           -8.256874            0.526388           -0.624894
 C           -7.511585            0.079077            0.542297
 C           -7.480986           -1.101964            1.266480
 C           -8.162730           -2.357440            1.136537
 C           -7.901602           -3.341235            2.040776
 C           -6.961121           -3.143945            3.124160
 C           -6.285325           -1.971748            3.279253
 C           -6.516835           -0.909243            2.343418
 C           -6.018393            0.377937            2.206341
 C           -5.049712            1.192082            2.919643
 C           -3.965141            0.577481            3.570275
 C           -3.040244            1.357695            4.267240
 C           -3.185672            2.747945            4.315958
 C           -4.259416            3.361864            3.662419
 C           -5.190113            2.590856            2.963896
 O           -6.625675            1.003821            1.106714
 C           -5.633088            2.627022           -1.593409
 C           -4.298173            2.851038           -1.582929
 C           -3.347762            1.764007           -1.774788
 C           -1.987510            1.970983           -1.737312
 C           -1.065820            0.890316           -1.930701
 C            0.322196            1.088055           -1.881625
 C            1.214730            0.023392           -2.086920
 C            2.633268            0.214525           -2.044393
 C            3.501221           -0.831781           -2.267257
 C            4.942657           -0.647148           -2.238607
 C            6.499937           -1.626920            0.776451
 C            6.129483           -3.013242            0.753948
 C            5.403457           -3.513586            1.790741
 H            4.437240           -3.155772            3.705752
 H            5.034773           -0.724085            3.797912
 H            8.268550            2.550986            1.325136
 H            8.133034            4.771080            2.450354
 H            6.270029            5.256647            4.024856
 H            4.536562            3.530873            4.471166
 H            4.657562            1.318226            3.346494
 H            9.843989           -0.438581           -0.504367
 H           11.103502           -0.864593           -2.609406
 H            9.909871           -1.710141           -4.622446
 H            7.456576           -2.094218           -4.547311
 H            5.984919           -3.810778           -2.935764
 H            3.526237           -4.226991           -2.982929
 H            1.212037           -3.358013           -2.778738
 H           -1.085388           -2.489877           -2.583891
 H           -3.382394           -1.629440           -2.383175
 H           -5.690930           -0.774149           -2.146444
 H           -7.910067            1.938765           -3.716252
 H          -10.375770            1.617366           -3.703164
 H          -11.491654            0.610517           -1.719812
 H          -10.140075           -0.081855            0.249346
 H           -8.863656           -2.486132            0.315167
 H           -8.394397           -4.309804            1.976219
 H           -6.814374           -3.972574            3.814973
 H           -5.581446           -1.807582            4.092097
 H           -3.840682           -0.503622            3.518531
 H           -2.200330            0.880492            4.769956
 H           -2.461623            3.352448            4.859067
 H           -4.370138            4.444499            3.698744
 H           -6.026425            3.063759            2.448309
 H           -6.353047            3.430691           -1.444341
 H           -3.891089            3.849463           -1.425632
 H           -1.581821            2.965968           -1.556011
 H            0.715679            2.084399           -1.680940
 H            3.013253            1.213719           -1.830414
 H            5.320035            0.351591           -2.011889
 H            6.435446           -3.617885           -0.097308
 H            5.098417           -4.558332            1.811541

