102

 C           18.695312            2.536330            2.632110
 C           19.095669            1.146700            2.513142
 C           18.219122            0.198496            2.110312
 C           16.839124            0.555933            1.783784
 N           16.005882           -0.405260            1.390791
 C           14.688375           -0.071568            1.077847
 C           13.816232           -1.093386            0.664259
 C           12.483378           -0.802556            0.338917
 C           11.575550           -1.827397           -0.086152
 C           10.268664           -1.536061           -0.404998
 C            9.332966           -2.564166           -0.839578
 C            8.047672           -2.262928           -1.138453
 C            7.562223           -0.894824           -1.036959
 C            6.140444           -0.632006           -1.352977
 C            5.830137            0.324106           -2.404509
 C            4.544958            0.610192           -2.719596
 C            3.435608           -0.021811           -2.018657
 C            2.123182            0.265288           -2.319872
 C            1.044603           -0.369269           -1.621164
 C           -0.296860           -0.086387           -1.922055
 C           -1.344293           -0.716743           -1.231882
 C           -2.716828           -0.438169           -1.532869
 C           -3.738064           -1.062451           -0.851480
 C           -5.134366           -0.786297           -1.146512
 C           -6.133487           -1.405576           -0.462885
 C           -7.555268           -1.112173           -0.749449
 C           -8.392967           -0.651972            0.217665
 C           -9.782523           -0.343262           -0.077041
 C          -10.639834            0.129356            0.891274
 C          -12.006087            0.434520            0.588746
 C          -12.882826            0.915446            1.574841
 C          -14.217697            1.210047            1.269346
 C          -15.147404            1.701546            2.243114
 C          -16.447039            1.972978            1.885929
 C          -17.444586            2.472178            2.817092
 C          -18.712070            2.722265            2.409647
 C          -19.111168            2.499826            1.032486
 C          -18.231210            2.036599            0.115490
 C          -16.848781            1.747958            0.495351
 N          -16.012337            1.293224           -0.435391
 C          -14.692640            1.015367           -0.080258
 C          -13.817514            0.535456           -1.070060
 C          -12.482515            0.241631           -0.756858
 C          -11.572125           -0.250792           -1.748757
 C          -10.263472           -0.539765           -1.435356
 C           -9.325643           -1.043775           -2.429273
 C           -8.039527           -1.315423           -2.106598
 C           -5.823115           -2.371154            0.580017
 C           -4.537985           -2.663619            0.889139
 C           -3.428962           -2.023724            0.194758
 C           -2.116525           -2.304907            0.501234
 C           -1.038126           -1.668051           -0.195779
 C            0.303267           -1.949918            0.106152
 C            1.350716           -1.321517           -0.585932
 C            2.723168           -1.603940           -0.288079
 C            3.744601           -0.983131           -0.972481
 C            5.140953           -1.258096           -0.676042
 C            8.398619            0.103953           -0.647256
 C            9.786833           -0.167105           -0.311102
 C           10.641984            0.833042            0.094676
 C           12.006070            0.553424            0.430283
 C           12.879956            1.571826            0.844813
 C           14.212420            1.288518            1.170833
 C           15.138790            2.295510            1.597740
 C           16.436075            1.959087            1.904617
 C           17.429977            2.924230            2.343036
 H           19.449048            3.250487            2.961366
 H           20.127815            0.897058            2.760464
 H           18.491262           -0.854218            2.011439
 H           14.194178           -2.116131            0.600583
 H           11.949452           -2.849712           -0.149948
 H            9.708978           -3.584859           -0.914525
 H            7.342364           -3.026390           -1.467177
 H            6.665249            0.790066           -2.927370
 H            4.299502            1.321355           -3.508609
 H            1.877029            0.985031           -3.100551
 H           -0.530798            0.634267           -2.705626
 H           -2.935429            0.284100           -2.319319
 H           -5.349968           -0.058476           -1.929185
 H           -8.046427           -0.490527            1.238799
 H          -10.291716            0.281587            1.912923
 H          -12.518084            1.061008            2.591833
 H          -14.799672            1.853084            3.265559
 H          -17.131915            2.635106            3.848115
 H          -19.468657            3.096254            3.098256
 H          -20.145296            2.719743            0.766064
 H          -18.502158            1.859482           -0.927186
 H          -14.194923            0.395116           -2.085279
 H          -11.945690           -0.391104           -2.763476
 H           -9.700951           -1.193920           -3.441854
 H           -7.332859           -1.696834           -2.843891
 H           -6.658361           -2.849113            1.091731
 H           -4.292443           -3.387947            1.666037
 H           -1.870280           -3.021999            1.284309
 H            0.537116           -2.669489            0.890730
 H            2.941455           -2.326302            0.498364
 H            5.356259           -1.976857            0.115048
 H            8.051811            1.134268           -0.563972
 H           10.293626            1.863123            0.169638
 H           12.514741            2.596663            0.913593
 H           14.790359            3.326166            1.672062
 H           17.116399            3.964263            2.428326

