102

 C           -9.296556           -0.883598           -6.136424
 C           -7.862756           -1.088798           -6.043982
 C           -7.252948           -1.230434           -4.844982
 C           -8.031521           -1.176004           -3.607679
 N           -7.394277           -1.307697           -2.447467
 C           -8.122514           -1.257491           -1.259384
 C           -9.554244           -1.074761           -1.268045
 C          -10.207292           -0.934001           -2.537714
 C           -9.479761           -0.976854           -3.702613
 C          -10.067566           -0.832572           -5.023859
 C          -10.252410           -1.035403           -0.056266
 C           -9.579611           -1.173298            1.169035
 C          -10.293137           -1.128884            2.410380
 C           -9.641238           -1.260273            3.616062
 C          -10.349778           -1.208292            4.887214
 C           -9.686170           -1.339117            6.061213
 C           -8.251042           -1.538048            6.082297
 C           -7.543341           -1.594861            4.928382
 C           -8.201220           -1.455015            3.636683
 C           -7.497973           -1.499873            2.453583
 C           -8.151946           -1.356910            1.186561
 C           -7.436477           -1.388307           -0.030240
 C           -5.963052           -1.554839           -0.032645
 C           -5.434774           -2.910051           -0.046167
 C           -4.098391           -3.124418           -0.058911
 C           -3.154601           -2.014810           -0.060056
 C           -1.793218           -2.218138           -0.080314
 C           -0.876650           -1.116468           -0.085472
 C            0.512844           -1.313886           -0.105010
 C            1.401112           -0.226676           -0.107125
 C            2.821329           -0.414831           -0.122178
 C            3.684626            0.658476           -0.123943
 C            5.128186            0.482073           -0.138218
 C            5.962391            1.554696           -0.143168
 C            7.435870            1.389231           -0.156537
 C            8.147872            1.236693            1.053482
 C            7.490863            1.261539            2.326670
 C            8.190667            1.101832            3.501897
 C            7.529605            1.124298            4.799325
 C            8.233761            0.955953            5.944524
 C            9.667657            0.750582            5.908265
 C           10.333806            0.725889            4.728680
 C            9.629598            0.902004            3.466380
 C           10.284284            0.882993            2.255144
 C            9.574860            1.050787            1.022154
 C           10.250704            1.032386           -0.209146
 C            9.556712            1.196344           -1.412671
 C           10.214220            1.182990           -2.687841
 C            9.491365            1.347183           -3.844660
 C           10.084513            1.337455           -5.171379
 C            9.318683            1.505134           -6.275957
 C            7.884959            1.703706           -6.168432
 C            7.270333            1.723339           -4.963745
 C            8.043284            1.540475           -3.735141
 N            7.401827            1.555680           -2.569912
 C            8.125378            1.382325           -1.390364
 C            5.433214            2.909554           -0.138544
 C            4.096733            3.122889           -0.122695
 C            3.154073            2.012615           -0.112814
 C            1.792487            2.215400           -0.099002
 C            0.876603            1.113501           -0.094047
 C           -0.513022            1.310933           -0.077249
 C           -1.400957            0.223835           -0.070560
 C           -2.821115            0.412463           -0.050765
 C           -3.684582           -0.660427           -0.045692
 C           -5.128075           -0.482989           -0.032051
 H           -9.724025           -0.773097           -7.132458
 H           -7.298482           -1.124244           -6.976269
 H           -6.176725           -1.387004           -4.742133
 H          -11.288342           -0.791660           -2.552412
 H          -11.144957           -0.681243           -5.079942
 H          -11.333374           -0.894772           -0.061918
 H          -11.372897           -0.985482            2.377645
 H          -11.428162           -1.059021            4.855458
 H          -10.204742           -1.299349            7.018201
 H           -7.768819           -1.638782            7.053480
 H           -6.463825           -1.744753            4.927378
 H           -6.415042           -1.646520            2.460155
 H           -6.150864           -3.731041           -0.060455
 H           -3.686604           -4.133005           -0.075399
 H           -1.383283           -3.227430           -0.095231
 H            0.909518           -2.328511           -0.120467
 H            3.205493           -1.434459           -0.134972
 H            5.514101           -0.536758           -0.156880
 H            6.408661            1.412844            2.344923
 H            6.450966            1.280212            4.809620
 H            7.749255            0.969102            6.919680
 H           10.183059            0.617996            6.858598
 H           11.411243            0.572779            4.685577
 H           11.363366            0.737474            2.211480
 H           11.331074            0.887943           -0.225880
 H           11.294849            1.038889           -2.713118
 H           11.161727            1.189156           -5.238223
 H            9.750140            1.496455           -7.276360
 H            7.324660            1.835829           -7.094408
 H            6.193939            1.870778           -4.849973
 H            6.148659            3.730984           -0.162807
 H            3.683902            4.131163           -0.123331
 H            1.381977            3.224559           -0.093526
 H           -0.909836            2.325610           -0.070939
 H           -3.205091            1.432230           -0.043465
 H           -5.513824            0.536098           -0.036889

