86

 C           11.107354            2.078013           -5.295053
 C           11.582833            1.524785           -4.156349
 C           10.693856            0.848438           -3.215366
 C           11.155298            0.280730           -2.060274
 C           10.266897           -0.386482           -1.133895
 C           10.742099           -0.967531            0.027961
 C            9.848184           -1.618731            0.921665
 C           10.139746           -2.264799            2.119977
 S            8.721931           -2.878689            2.814069
 C            7.683334           -2.321549            1.584168
 C            6.245695           -2.524390            1.653233
 C            5.725453           -3.883160            1.590944
 C            4.392353           -4.112257            1.643140
 C            3.439252           -3.018496            1.770383
 C            2.081673           -3.238815            1.828829
 C            1.158136           -2.151382            1.962832
 C           -0.226648           -2.367107            2.035022
 C           -1.121491           -1.294965            2.175122
 C           -2.535559           -1.504854            2.264182
 C           -3.406827           -0.447675            2.404670
 C           -4.842438           -0.650845            2.503675
 C           -5.694864            0.402556            2.631246
 C           -7.132127            0.205045            2.737743
 C           -8.123030            0.391010            1.772535
 C           -7.976551            0.833030            0.430378
 C           -9.082595            0.935687           -0.392969
 C           -8.958684            1.376167           -1.764717
 C          -10.046457            1.481498           -2.585626
 C           -9.926238            1.926932           -3.971005
 C          -11.012485            2.031785           -4.769103
 C          -12.336032            1.700666           -4.269573
 C          -12.510578            1.278142           -2.996921
 C          -11.379418            1.143948           -2.082532
 C          -11.534538            0.719821           -0.792223
 C          -10.408389            0.596613            0.107833
 C          -10.573732            0.168858            1.412289
 C           -9.450649            0.053037            2.277058
 C           -9.422478           -0.365729            3.604127
 S           -7.833074           -0.347627            4.189213
 C           -5.180885            1.765201            2.666612
 C           -3.850538            2.001837            2.587226
 C           -2.893345            0.911727            2.454404
 C           -1.537338            1.135625            2.372261
 C           -0.611444            0.049704            2.236421
 C            0.773540            0.265232            2.164175
 C            1.669523           -0.807609            2.031115
 C            3.085501           -0.601486            1.963129
 C            3.956434           -1.661346            1.835932
 C            5.394282           -1.466604            1.764305
 C            8.423980           -1.653453            0.605738
 C            7.957948           -1.056397           -0.595319
 C            8.846672           -0.437152           -1.454850
 C            8.397191            0.171235           -2.686878
 C            9.267657            0.789199           -3.540646
 C            8.819540            1.403429           -4.787073
 C            9.692473            2.014952           -5.619005
 H           11.761971            2.584640           -6.002585
 H           12.641229            1.564221           -3.901672
 H           12.213821            0.314687           -1.803392
 H           11.801170           -0.938004            0.277343
 H           11.110774           -2.374538            2.569594
 H            6.441766           -4.697534            1.485036
 H            3.988081           -5.123214            1.588897
 H            1.680564           -4.250778            1.775719
 H           -0.613223           -3.384837            1.984204
 H           -2.908094           -2.528063            2.219259
 H           -5.210212           -1.676466            2.464210
 H           -6.977954            1.081730            0.071631
 H           -7.959563            1.622472           -2.124444
 H           -8.926751            2.169852           -4.330179
 H          -10.933139            2.364265           -5.802798
 H          -13.173131            1.806560           -4.957886
 H          -13.497130            1.025634           -2.610085
 H          -12.518549            0.460720           -0.401982
 H          -11.558415           -0.088438            1.798132
 H          -10.266184           -0.665266            4.200210
 H           -5.906142            2.573726            2.759816
 H           -3.452398            3.016205            2.618266
 H           -1.138308            2.149186            2.409182
 H            1.160462            1.282852            2.215169
 H            3.460150            0.420610            2.016737
 H            5.770344           -0.443685            1.806714
 H            6.892388           -1.104570           -0.820004
 H            7.332225            0.117961           -2.913689
 H            7.755662            1.346549           -5.015061
 H            9.368079            2.475750           -6.550477

