86

 C            9.694024           -2.788999            0.898784
 C           10.363516           -1.643455            0.639053
 C            9.685031           -0.488646            0.059140
 C           10.356440            0.671129           -0.215358
 C            9.693349            1.813127           -0.801785
 C           10.380251            2.983637           -1.072928
 C            9.705005            4.089556           -1.653187
 C           10.222102            5.338424           -1.993820
 S            9.002274            6.304600           -2.655015
 C            7.774317            5.150074           -2.524366
 C            8.281654            3.979652           -1.961784
 C            7.597285            2.769010           -1.675143
 C            8.274444            1.704102           -1.106586
 C            7.598418            0.464065           -0.797890
 C            8.254577           -0.594731           -0.233914
 C            7.583459           -1.856926            0.095547
 C            6.126163           -1.980089           -0.151442
 C            5.696931           -2.586522           -1.401379
 C            4.380288           -2.755545           -1.666711
 C            3.357861           -2.339047           -0.716373
 C            2.016061           -2.518313           -0.966347
 C            1.021341           -2.099777           -0.023318
 C           -0.348851           -2.279181           -0.269510
 C           -1.314825           -1.861439            0.659753
 C           -2.716587           -2.036740            0.419826
 C           -3.656230           -1.624587            1.338867
 C           -5.081943           -1.805342            1.114258
 C           -5.993759           -1.401636            2.037299
 C           -7.447766           -1.614383            1.835950
 C           -8.056240           -2.705635            2.365946
 C           -9.470898           -2.945349            2.158896
 C          -10.218943           -2.088856            1.427694
 C           -9.631920           -0.889642            0.838068
 C          -10.382825           -0.013689            0.103378
 C           -9.810700            1.182384           -0.471252
 C          -10.577356            2.060806           -1.216623
 C           -9.990791            3.231534           -1.765787
 C          -10.595078            4.222920           -2.536888
 S           -9.459349            5.408672           -2.941422
 C           -8.158393            4.685480           -2.139340
 C           -8.573791            3.500090           -1.534718
 C           -7.806444            2.584307           -0.767099
 C           -8.397664            1.447411           -0.244339
 C           -7.635923            0.495555            0.532906
 C           -8.206825           -0.632353            1.053750
 C           -5.565343           -0.757708            3.268741
 C           -4.249504           -0.565841            3.522330
 C           -3.227282           -0.994782            2.577434
 C           -1.885197           -0.818327            2.828574
 C           -0.890736           -1.241577            1.887652
 C            0.479776           -1.065694            2.135678
 C            1.445327           -1.480368            1.204920
 C            2.847169           -1.305110            1.445256
 C            3.786717           -1.717310            0.526361
 C            5.213181           -1.557058            0.761688
 C            8.274907           -2.898566            0.623732
 H           10.190649           -3.659552            1.325043
 H           11.427488           -1.542960            0.850671
 H           11.420392            0.765285            0.001299
 H           11.440892            3.077153           -0.848282
 H           11.238227            5.666268           -1.866889
 H            6.759928            5.322107           -2.837219
 H            6.536366            2.698118           -1.909827
 H            6.533288            0.401480           -1.032134
 H            6.470369           -2.892124           -2.105824
 H            4.042889           -3.207276           -2.599519
 H            1.681610           -2.985441           -1.892384
 H           -0.668936           -2.751783           -1.197905
 H           -3.024054           -2.507841           -0.513739
 H           -5.392164           -2.279017            0.182582
 H           -7.501252           -3.435959            2.954230
 H           -9.898847           -3.840097            2.608826
 H          -11.280688           -2.261443            1.255161
 H          -11.443696           -0.194816           -0.068359
 H          -11.634332            1.872535           -1.394016
 H          -11.625041            4.255933           -2.843668
 H           -7.167222            5.102142           -2.117107
 H           -6.750968            2.794593           -0.601378
 H           -6.576480            0.710224            0.690557
 H           -6.339156           -0.438797            3.966876
 H           -3.912766           -0.083706            4.440109
 H           -1.550561           -0.350333            3.754186
 H            0.800133           -0.599850            3.067461
 H            3.154547           -0.835190            2.379509
 H            5.523318           -1.090400            1.697005
 H            7.785357           -3.842064            0.863581

