84

 C           11.893667           -1.706917            3.041143
 C           10.553873           -1.360093            3.229039
 C            9.796444           -0.857173            2.159225
 C           10.406078           -0.702898            0.883407
 C           11.771209           -1.059644            0.703350
 C           12.501972           -1.560847            1.792738
 C           12.368796           -0.894320           -0.610942
 C           11.652908           -0.407581           -1.652683
 C           10.257339           -0.032435           -1.500086
 C            9.504635            0.472921           -2.572296
 C            8.163115            0.807753           -2.396042
 C            7.539796            0.649902           -1.149666
 C            6.103592            0.994002           -1.025725
 C            5.753529            2.364781           -0.689918
 C            4.455745            2.736376           -0.587215
 C            3.376219            1.784105           -0.810365
 C            2.051940            2.150133           -0.722064
 C            1.002152            1.199390           -0.940225
 C           -0.350702            1.560575           -0.842694
 C           -1.370134            0.618618           -1.051300
 C           -2.754247            0.972750           -0.944581
 C           -3.747574            0.041784           -1.151214
 C           -5.156071            0.390468           -1.055294
 C           -6.124100           -0.537537           -1.273869
 C           -7.560680           -0.179099           -1.209157
 C           -8.207846            0.213385           -2.389921
 C           -9.550481            0.587478           -2.379130
 C          -10.280505            0.579521           -1.179675
 C          -11.676580            0.979483           -1.129096
 C          -12.370472            0.967919            0.034131
 C          -11.747635            0.552886            1.279802
 C          -12.455341            0.533640            2.492525
 C          -11.823153            0.129355            3.670179
 C          -10.482282           -0.261238            3.664685
 C           -9.747736           -0.252300            2.468190
 C          -10.381509            0.157000            1.262449
 C           -9.638711            0.172400            0.022389
 C           -8.269034           -0.214555            0.008712
 C           -7.653535           -0.630594            1.258355
 C           -8.351076           -0.649902            2.418981
 C           -5.774150           -1.911994           -1.594555
 C           -4.476491           -2.285405           -1.691344
 C           -3.396684           -1.329935           -1.482430
 C           -2.072844           -1.691156           -1.592075
 C           -1.022685           -0.739042           -1.379680
 C            0.329855           -1.099627           -1.480048
 C            1.349702           -0.159565           -1.262650
 C            2.733804           -0.517796           -1.351833
 C            3.727325            0.411356           -1.136420
 C            5.135833            0.062723           -1.231493
 C            8.271159            0.160484           -0.048737
 C            9.639710           -0.186793           -0.228342
 C            7.680319           -0.007534            1.268861
 C            8.399731           -0.486651            2.311445
 H           12.471291           -2.097189            3.878689
 H           10.095542           -1.481165            4.209211
 H           13.547145           -1.836751            1.663667
 H           13.414739           -1.178301           -0.725847
 H           12.101100           -0.284219           -2.638674
 H            9.969375            0.601066           -3.549109
 H            7.586009            1.193310           -3.237571
 H            6.569475            3.068494           -0.524809
 H            4.176501            3.759033           -0.333563
 H            1.774694            3.176749           -0.483285
 H           -0.613569            2.589706           -0.598879
 H           -3.004441            2.003467           -0.694018
 H           -5.407584            1.421610           -0.805828
 H           -7.648638            0.229562           -3.326373
 H          -10.034028            0.891020           -3.306798
 H          -12.143790            1.291098           -2.063362
 H          -13.416954            1.269995            0.072626
 H          -13.501288            0.834789            2.514892
 H          -12.383152            0.118877            4.604905
 H          -10.005439           -0.573481            4.592386
 H           -6.603543           -0.929200            1.225547
 H           -7.885146           -0.964647            3.352831
 H           -6.590151           -2.618023           -1.748689
 H           -4.197417           -3.312182           -1.927873
 H           -1.795897           -2.714526           -1.844637
 H            0.592711           -2.127471           -1.729139
 H            2.984160           -1.550142           -1.595306
 H            5.387492           -0.969585           -1.475842
 H            6.630297            0.268700            1.386911
 H            7.952016           -0.609249            3.297690

