116

 C           -9.358767           -4.734426           -4.734408
 C           -8.042845           -5.013813           -4.191990
 C           -7.437752           -4.136533           -3.358068
 C           -8.082370           -2.885226           -2.972880
 C           -9.409545           -2.610627           -3.513271
 C          -10.008312           -3.592450           -4.411323
 C          -10.063381           -1.453573           -3.178846
 C           -9.470135           -0.486340           -2.293416
 C          -10.138432            0.686310           -1.955268
 C           -9.557774            1.639128           -1.082264
 C          -10.227329            2.839467           -0.734493
 C           -9.645881            3.764924            0.125611
 C          -10.315537            4.989049            0.484874
 C           -9.737631            5.896354            1.334982
 C          -10.405408            7.138323            1.709466
 C           -9.819715            8.021560            2.551109
 C           -8.504889            7.757612            3.106222
 C           -7.837779            6.622249            2.794810
 C           -8.415554            5.630173            1.894890
 C           -7.754568            4.473501            1.570372
 C           -8.335469            3.501332            0.679950
 C           -7.670938            2.326623            0.343548
 C           -8.253313            1.378796           -0.535545
 C           -7.580378            0.182253           -0.889600
 C           -8.154585           -0.747156           -1.751205
 C           -7.483179           -1.974381           -2.129204
 C           -6.126220           -2.232834           -1.588543
 C           -6.021554           -2.933254           -0.318213
 C           -4.808976           -3.219065            0.211120
 C           -3.578570           -2.836429           -0.468148
 C           -2.338154           -3.127060            0.053546
 C           -1.137194           -2.741124           -0.626683
 C            0.132196           -3.025691           -0.099719
 C            1.300924           -2.637066           -0.773189
 C            2.601734           -2.913221           -0.240180
 C            3.743067           -2.525434           -0.905889
 C            5.068829           -2.802750           -0.376889
 C            6.185111           -2.419766           -1.050166
 C            7.542314           -2.717651           -0.530895
 C            8.186158           -1.734932            0.317609
 C            7.585457           -0.522827            0.642916
 C            8.231445            0.423451            1.478004
 C            7.621801            1.659918            1.809387
 C            8.259809            2.579648            2.635188
 C            7.651034            3.838716            2.981108
 C            8.285989            4.738866            3.797705
 C            7.680111            6.016807            4.155290
 C            8.321971            6.894740            4.960558
 C            9.636260            6.587839            5.494426
 C           10.246721            5.416747            5.199015
 C            9.607559            4.429255            4.336017
 C           10.211081            3.238302            4.024265
 C            9.569757            2.273181            3.168103
 C           10.177343            1.064265            2.846035
 C            9.535459            0.121531            2.003971
 C           10.142692           -1.112920            1.665377
 C            9.501208           -2.032614            0.841660
 C           10.121249           -3.284920            0.497157
 C            9.493855           -4.192577           -0.315527
 C           10.120664           -5.462671           -0.666340
 C            9.497652           -6.352514           -1.472782
 C            8.182224           -6.064726           -2.012032
 C            7.551338           -4.904985           -1.715506
 C            8.167193           -3.904095           -0.850157
 C            6.080550           -1.712445           -2.316682
 C            4.868075           -1.431933           -2.848988
 C            3.637588           -1.824658           -2.175676
 C            2.397338           -1.551270           -2.706789
 C            1.196373           -1.941506           -2.028981
 C           -0.072932           -1.659622           -2.557301
 C           -1.241802           -2.042025           -1.880476
 C           -2.542661           -1.751648           -2.405521
 C           -3.684225           -2.128545           -1.733959
 C           -5.010086           -1.845116           -2.259358
 H           -9.797113           -5.473203           -5.403573
 H           -7.565798           -5.949525           -4.479657
 H           -6.447433           -4.338863           -2.945363
 H          -10.997066           -3.365892           -4.808467
 H          -11.054276           -1.236694           -3.577603
 H          -11.128575            0.884223           -2.365036
 H          -11.214306            3.031674           -1.154313
 H          -11.301000            5.172687            0.057599
 H          -11.391570            7.322967            1.285207
 H          -10.310448            8.950600            2.837700
 H           -8.082075            8.503836            3.777165
 H           -6.850345            6.410014            3.203296
 H           -6.767430            4.261245            1.980778
 H           -6.683437            2.120534            0.757201
 H           -6.588222           -0.001600           -0.470893
 H           -6.949189           -3.215044            0.179921
 H           -4.715129           -3.745031            1.161122
 H           -2.244883           -3.659983            0.999676
 H            0.212758           -3.555581            0.849343
 H            2.666952           -3.440641            0.711442
 H            5.135188           -3.330731            0.574762
 H            6.593079           -0.283386            0.253994
 H            6.634569            1.883066            1.404145
 H            6.664333            4.055786            2.572290
 H            6.693141            6.232386            3.747544
 H            7.878242            7.851176            5.232673
 H           10.105682            7.331940            6.136374
 H           11.232541            5.172505            5.592961
 H           11.196324            2.991120            4.418886
 H           11.163934            0.827966            3.243805
 H           11.132222           -1.337863            2.062604
 H           11.111059           -3.490646            0.904543
 H           11.108200           -5.661636           -0.251693
 H            9.957213           -7.302680           -1.740711
 H            7.726763           -6.812699           -2.659305
 H            6.560935           -4.680686           -2.116407
 H            7.008101           -1.424034           -2.811182
 H            4.774408           -0.904029           -3.797967
 H            2.304057           -1.029366           -3.659068
 H           -0.153477           -1.132984           -3.508202
 H           -2.607783           -1.221545           -3.355688
 H           -5.076634           -1.316082           -3.210425

