92

 C           12.678930           -2.157294           -3.002392
 C           11.444189           -2.097712           -3.751128
 C           10.320833           -1.578990           -3.192860
 C           10.329376           -1.071506           -1.831847
 C            9.193301           -0.539093           -1.242223
 C            9.220771           -0.049863            0.091745
 C            8.061042            0.492459            0.707784
 C            8.094416            0.970168            2.008866
 C            9.333729            0.921417            2.752432
 C           10.470808            0.388549            2.163729
 C           10.445757           -0.106974            0.833006
 C           11.603636           -0.655975            0.218833
 C           11.564418           -1.131667           -1.082642
 C           12.737519           -1.696266           -1.727077
 C            9.357184            1.438361            4.109201
 C            8.238637            1.957239            4.675889
 C            6.995626            1.999194            3.945708
 C            6.918468            1.524692            2.670898
 C            5.626229            1.566866            1.944687
 C            5.354482            2.724489            1.107576
 C            4.175667            2.837382            0.451994
 C            3.148043            1.811219            0.562965
 C            1.935260            1.923707           -0.078593
 C            0.933362            0.906414            0.043423
 C           -0.309122            1.015816           -0.600039
 C           -1.280626            0.010053           -0.477139
 C           -2.548438            0.104668           -1.137686
 C           -3.491183           -0.892282           -1.020015
 C           -4.769155           -0.824538           -1.711221
 C           -5.680007           -1.826092           -1.597798
 C           -6.963831           -1.795079           -2.339457
 C           -7.058507           -2.409033           -3.552122
 C           -8.289562           -2.377525           -4.302652
 C           -9.379448           -1.730714           -3.817611
 C           -9.337577           -1.064808           -2.527892
 C          -10.446416           -0.403008           -2.021967
 C          -10.405330            0.235960           -0.754226
 C          -11.533609            0.919466           -0.225986
 C          -11.479466            1.534070            1.015463
 C          -12.621515            2.239468            1.570771
 C          -12.548845            2.835019            2.788350
 C          -11.330260            2.780413            3.563616
 C          -10.236289            2.132655            3.087964
 C          -10.260126            1.480397            1.790395
 C           -9.153025            0.817191            1.284181
 C           -9.194866            0.187263            0.011107
 C           -8.063675           -0.487952           -0.520933
 C           -8.110977           -1.102261           -1.762805
 C           -5.408846           -2.982679           -0.759111
 C           -4.234651           -3.089691           -0.094156
 C           -3.210382           -2.059592           -0.199495
 C           -1.999415           -2.169596            0.445943
 C           -0.998844           -1.150783            0.325912
 C            0.243339           -1.259919            0.970012
 C            1.215039           -0.254465            0.846459
 C            2.483845           -0.350778            1.504878
 C            3.428624            0.643755            1.383334
 C            4.710166            0.571219            2.067479
 H           13.552105           -2.582064           -3.495292
 H           11.448517           -2.481489           -4.770031
 H            9.383008           -1.528577           -3.744667
 H            8.257085           -0.488114           -1.798273
 H            7.132131            0.525964            0.134402
 H           11.406295            0.344291            2.721014
 H           12.530038           -0.698119            0.790952
 H           13.660733           -1.735521           -1.150523
 H           10.301592            1.394756            4.650475
 H            8.243852            2.351588            5.691347
 H            6.122212            2.418341            4.444885
 H            6.128879            3.488037            1.035438
 H            3.956968            3.700174           -0.177047
 H            1.711447            2.794225           -0.695044
 H           -0.523356            1.896273           -1.205754
 H           -2.748413            0.987882           -1.744164
 H           -4.964467            0.051368           -2.330485
 H           -6.207399           -2.933064           -3.986488
 H           -8.309085           -2.884741           -5.266451
 H          -10.314004           -1.692737           -4.376027
 H          -11.371594           -0.366395           -2.596615
 H          -12.448839            0.954177           -0.816173
 H          -13.533006            2.272422            0.975581
 H          -13.398674            3.366527            3.213979
 H          -11.322617            3.273825            4.534181
 H           -9.311144            2.083253            3.661001
 H           -8.228925            0.769727            1.860576
 H           -7.145561           -0.514701            0.070045
 H           -6.180363           -3.749373           -0.691855
 H           -4.017092           -3.950958            0.537362
 H           -1.775565           -3.040049            1.062495
 H            0.457582           -2.140555            1.575462
 H            2.683503           -1.234186            2.111179
 H            4.905253           -0.305422            2.685693

