104

 C           14.216358            3.887674            0.186006
 C           14.118928            2.588846           -0.186878
 C           12.863711            1.861663           -0.054956
 C           12.743418            0.541780           -0.427520
 C           11.500727           -0.158528           -0.289775
 C           11.368659           -1.503884           -0.665716
 C           10.145694           -2.178730           -0.525915
 C            9.997663           -3.552229           -0.902042
 C            8.793201           -4.206090           -0.764977
 C            8.645039           -5.605838           -1.136346
 C            7.459844           -6.244771           -0.990771
 C            6.303434           -5.546484           -0.475251
 C            6.378559           -4.235076           -0.122720
 C            5.171504           -3.532582            0.375913
 C            4.806507           -3.713997            1.771702
 C            3.695533           -3.125076            2.273251
 C            2.835529           -2.297675            1.438218
 C            1.693787           -1.706353            1.930708
 C            0.857586           -0.894956            1.096525
 C           -0.310007           -0.290791            1.589021
 C           -1.121816            0.502082            0.762734
 C           -2.313357            1.127886            1.254873
 C           -3.099809            1.909449            0.438061
 C           -4.300885            2.566689            0.929176
 C           -5.056683            3.346475            0.112835
 C           -6.255735            4.058918            0.616973
 C           -7.557155            3.392170            0.566567
 C           -7.726938            2.131121            0.039761
 C           -9.012767            1.499345            0.012696
 C           -9.192021            0.212881           -0.520293
 C          -10.456594           -0.395953           -0.535755
 C          -10.652623           -1.708490           -1.075848
 C          -11.897401           -2.296518           -1.088755
 C          -12.111528           -3.629043           -1.635920
 C          -13.343811           -4.191606           -1.642380
 C          -14.485162           -3.480324           -1.102262
 C          -14.342537           -2.238558           -0.579520
 C          -13.042368           -1.582619           -0.545893
 C          -12.875963           -0.321177           -0.020098
 C          -11.589667            0.310139            0.002645
 C          -11.410846            1.596060            0.534760
 C          -10.145992            2.204667            0.549714
 C           -9.950667            3.517411            1.086763
 C           -8.706202            4.107314            1.099999
 C           -8.508776            5.445622            1.637880
 C           -7.283314            6.022092            1.642616
 C           -6.133686            5.314898            1.124132
 C           -4.694678            3.525607           -1.284075
 C           -3.586184            2.933736           -1.787457
 C           -2.726710            2.103863           -0.953922
 C           -1.586043            1.511509           -1.447237
 C           -0.750224            0.698166           -0.613964
 C            0.416669            0.093374           -1.106646
 C            1.228909           -0.699657           -0.280245
 C            2.420537           -1.325293           -0.771819
 C            3.208698           -2.104315            0.046267
 C            4.412941           -2.757217           -0.442448
 C            7.637882           -3.498252           -0.235483
 C            7.763906           -2.179475            0.140709
 C            9.007705           -1.480451            0.010066
 C            9.140488           -0.134985            0.388528
 C           10.363049            0.539981            0.248849
 C           10.510880            1.913307            0.629601
 C           11.714105            2.567320            0.488909
 C           11.878713            3.962723            0.871866
 C           13.070380            4.590525            0.727434
 H           15.149781            4.440827            0.091886
 H           14.971407            2.047709           -0.595637
 H           13.595688            0.000252           -0.837075
 H           12.229123           -2.033855           -1.072875
 H           10.868038           -4.072748           -1.301078
 H            9.522077           -6.115167           -1.533637
 H            7.338070           -7.293430           -1.259589
 H            5.371658           -6.104774           -0.387264
 H            5.457353           -4.335358            2.386724
 H            3.408245           -3.251361            3.316981
 H            1.400619           -1.846764            2.970931
 H           -0.590909           -0.439982            2.631407
 H           -2.582381            0.971931            2.299475
 H           -4.568336            2.416318            1.975278
 H           -6.876628            1.582229           -0.370633
 H           -8.334828           -0.322630           -0.928912
 H           -9.787014           -2.233718           -1.479021
 H          -11.243603           -4.150835           -2.037639
 H          -13.514754           -5.186892           -2.049446
 H          -15.452439           -3.979770           -1.133026
 H          -15.190987           -1.691986           -0.169510
 H          -13.724203            0.225466            0.391114
 H          -12.267695            2.131345            0.942700
 H          -10.817364            4.043295            1.486857
 H           -9.382885            5.960998            2.033921
 H           -7.123706            7.024914            2.037177
 H           -5.169072            5.820977            1.159047
 H           -5.344993            4.148948           -1.897701
 H           -3.300196            3.059508           -2.831636
 H           -1.292823            1.652689           -2.487363
 H            0.697231            0.241797           -2.149263
 H            2.688744           -1.171509           -1.816986
 H            4.681195           -2.607173           -1.488515
 H            6.909919           -1.634908            0.549428
 H            8.279588            0.394586            0.797227
 H            9.642064            2.431028            1.035667
 H           11.007593            4.476738            1.276777
 H           13.204226            5.633311            1.010738

