104

 C          -17.191326           -3.126885            2.728461
 C          -16.957521           -3.268015            1.324363
 C          -15.800618           -2.799272            0.762874
 C          -14.803818           -2.159601            1.575498
 C          -13.593766           -1.667789            1.019420
 C          -12.633223           -1.052362            1.807266
 C          -12.875368           -0.912216            3.219695
 C          -14.053152           -1.386490            3.774997
 C          -15.037386           -2.018161            2.971050
 C          -16.261873           -2.519892            3.529110
 C          -11.867353           -0.267620            4.056126
 C          -10.714441            0.198509            3.537676
 C          -10.415752            0.082886            2.113288
 C           -9.221472            0.566372            1.603532
 C           -8.918928            0.455873            0.221071
 C           -7.679538            0.934382           -0.318228
 C           -7.406288            0.808473           -1.659007
 C           -6.113019            1.266759           -2.212936
 C           -6.119822            2.245190           -3.288746
 C           -4.958590            2.704553           -3.812530
 C           -3.669297            2.235269           -3.323000
 C           -2.477640            2.699543           -3.833795
 C           -1.219914            2.228756           -3.331895
 C            0.002425            2.704219           -3.833423
 C            1.226339            2.245643           -3.320064
 C            2.482217            2.735305           -3.808322
 C            3.675179            2.287162           -3.286231
 C            4.962580            2.777716           -3.759597
 C            6.124842            2.334439           -3.224258
 C            6.121246            1.351468           -2.152544
 C            7.414597            0.912437           -1.583584
 C            8.405907            0.345446           -2.453182
 C            9.594825           -0.102831           -1.947111
 C            9.877384           -0.008565           -0.541818
 C           11.099344           -0.476941            0.007992
 C           11.362735           -0.387867            1.366683
 C           10.372185            0.198435            2.231776
 C            9.176118            0.661448            1.707579
 C            8.901587            0.565911            0.318164
 C            7.661496            1.024368           -0.236325
 C           10.641296            0.296608            3.663396
 C           11.794854           -0.151435            4.195944
 C           12.834031           -0.756351            3.368166
 C           14.012354           -1.211666            3.938121
 C           15.028008           -1.802589            3.142285
 C           16.253683           -2.284284            3.715327
 C           17.214468           -2.850553            2.921950
 C           17.012805           -2.968426            1.510744
 C           15.855265           -2.518726            0.935261
 C           14.825855           -1.922073            1.739808
 C           13.614193           -1.451475            1.169123
 C           12.622607           -0.876520            1.948978
 C            4.946267            0.853665           -1.682026
 C            3.672249            1.295229           -2.223287
 C            2.478012            0.804242           -1.745598
 C            1.226403            1.261712           -2.269422
 C            0.005720            0.778591           -1.774370
 C           -1.216639            1.246013           -2.280139
 C           -2.466881            0.773329           -1.766536
 C           -3.663066            1.246823           -2.256756
 C           -4.936176            0.789071           -1.726718
 C           -8.369002            0.207251           -2.537658
 C           -9.556170           -0.261067           -2.046053
 C           -9.865354           -0.153906           -0.647293
 C          -11.085509           -0.643528           -0.112332
 C          -11.375456           -0.541074            1.239983
 H          -18.122411           -3.512504            3.141032
 H          -17.719071           -3.754866            0.717071
 H          -15.612319           -2.900911           -0.304819
 H          -13.431067           -1.785665           -0.053596
 H          -14.239476           -1.279974            4.843624
 H          -16.429696           -2.405529            4.599021
 H          -12.087955           -0.180069            5.120432
 H           -9.962766            0.679134            4.164838
 H           -8.494036            1.039093            2.263316
 H           -6.962215            1.399851            0.357541
 H           -7.087867            2.596179           -3.645157
 H           -4.951656            3.441322           -4.615759
 H           -2.467199            3.441831           -4.631717
 H            0.001166            3.444135           -4.633634
 H            2.469199            3.479293           -4.604610
 H            4.953364            3.517449           -4.560076
 H            7.091095            2.702224           -3.568464
 H            8.182807            0.272202           -3.517245
 H           10.349265           -0.542812           -2.598553
 H           11.836321           -0.916452           -0.667308
 H            8.425421            1.105856            2.360910
 H            6.922100            1.463609            0.433170
 H            9.866466            0.748192            4.283923
 H           11.992895           -0.077890            5.265785
 H           14.174886           -1.121045            5.012077
 H           16.396883           -2.187841            4.790575
 H           18.146685           -3.220897            3.345895
 H           17.798945           -3.422598            0.909452
 H           15.691061           -2.603320           -0.137884
 H           13.475531           -1.552969            0.091069
 H            4.924436            0.107894           -0.886947
 H            2.462423            0.056981           -0.952339
 H            0.007020            0.031752           -0.980563
 H           -2.448684            0.028460           -0.971077
 H           -4.912042            0.047734           -0.927587
 H           -8.125545            0.124953           -3.596624
 H          -10.289005           -0.726981           -2.704013
 H          -11.799480           -1.110438           -0.793884

