96

 C           11.239858           -2.904232           -4.930544
 C            9.961480           -3.396127           -4.542651
 C            9.329824           -2.887457           -3.434662
 C            9.937876           -1.859440           -2.647901
 C           11.213994           -1.374062           -3.035731
 C           11.850739           -1.918421           -4.196684
 C           11.852736           -0.351441           -2.269232
 C           11.247518            0.176847           -1.150911
 C           11.888503            1.219001           -0.353672
 C           11.295978            1.735802            0.742911
 C            9.982000            1.281023            1.182486
 C            9.317490            0.264656            0.428589
 C            9.946423           -0.300796           -0.742784
 C            9.298348           -1.304866           -1.480766
 C            7.996905           -1.752844           -1.043350
 C            7.392903           -1.221262            0.052896
 C            8.034006           -0.186534            0.829845
 C            7.424669            0.391497            1.976143
 C            6.069280           -0.026746            2.404611
 C            5.959474           -1.045692            3.436049
 C            4.744896           -1.439597            3.886149
 C            3.517481           -0.865643            3.351105
 C            2.274765           -1.247022            3.804625
 C            1.077661           -0.679636            3.257819
 C           -0.194000           -1.061517            3.713348
 C           -1.359429           -0.503346            3.165175
 C           -2.663545           -0.889906            3.616803
 C           -3.800627           -0.334797            3.074364
 C           -5.134613           -0.722762            3.512879
 C           -6.242347           -0.157189            2.978157
 C           -6.126187            0.864503            1.950091
 C           -7.370886            1.478022            1.430364
 C           -7.999824            0.967523            0.262975
 C           -7.489132           -0.178709           -0.451485
 C           -8.108312           -0.642700           -1.569689
 C           -9.296596           -0.010294           -2.093088
 C           -9.816668            1.105999           -1.417479
 C          -11.001074            1.769084           -1.912445
 C          -11.620114            1.307453           -3.052430
 C          -11.111230            0.173059           -3.756090
 C          -11.762613           -0.301475           -4.939320
 C          -11.277954           -1.394792           -5.612470
 C          -10.117355           -2.069476           -5.138552
 C           -9.473543           -1.630760           -4.007828
 C           -9.951603           -0.494537           -3.282663
 C          -11.511268            2.923694           -1.178263
 C          -10.905005            3.375723           -0.060799
 C           -9.705976            2.734121            0.465868
 C           -9.171092            1.602331           -0.224023
 C           -9.074555            3.200839            1.617047
 C           -7.911954            2.574300            2.094505
 C           -4.906524            1.252766            1.494594
 C           -3.686713            0.669657            2.029174
 C           -2.443815            1.050023            1.574721
 C           -1.248113            0.480419            2.120389
 C            0.023018            0.861763            1.663763
 C            1.188046            0.303737            2.212596
 C            2.490823            0.691254            1.760576
 C            3.628251            0.137489            2.304383
 C            4.955851            0.532328            1.862727
 C            8.091575            1.371843            2.704038
 C            9.364790            1.815794            2.311508
 H           11.719115           -3.322711           -5.814156
 H            9.496890           -4.179337           -5.139241
 H            8.349692           -3.263840           -3.136336
 H           12.828758           -1.534937           -4.484232
 H           12.831832            0.002223           -2.590875
 H           12.869312            1.562600           -0.683119
 H           11.777595            2.512973            1.336753
 H            7.505602           -2.537172           -1.623290
 H            6.407478           -1.565053            0.374504
 H            6.884463           -1.473522            3.822341
 H            4.645670           -2.200076            4.660766
 H            2.176128           -1.993565            4.592376
 H           -0.277848           -1.803695            4.506880
 H           -2.732966           -1.639759            4.404533
 H           -5.204471           -1.487646            4.286355
 H           -7.245810           -0.444238            3.292023
 H           -6.589751           -0.662567           -0.064527
 H           -7.716120           -1.511920           -2.102203
 H          -12.511594            1.800209           -3.439244
 H          -12.650168            0.221709           -5.292558
 H          -11.769378           -1.761154           -6.512366
 H           -9.752206           -2.935535           -5.687928
 H           -8.583767           -2.147406           -3.643519
 H          -12.405973            3.406081           -1.572459
 H          -11.288952            4.237259            0.485901
 H           -9.475995            4.058789            2.154926
 H           -7.428448            2.959172            2.993374
 H           -4.806573            2.013496            0.720099
 H           -2.345841            1.798189            0.788084
 H            0.106908            1.603515            0.869598
 H            2.561118            1.440990            0.972475
 H            5.025016            1.293746            1.085499
 H            7.622143            1.808427            3.586526
 H            9.863752            2.586485            2.897782

