96

 C           11.630025           -1.453709           -4.635240
 C           10.424305           -2.056374           -4.230555
 C            9.709973           -1.544857           -3.149146
 C           10.209926           -0.402148           -2.450411
 C           11.424793            0.198067           -2.866673
 C           12.126870           -0.344872           -3.968982
 C           11.909172            1.352311           -2.147180
 C           11.218947            1.857864           -1.089768
 C            9.979263            1.265737           -0.642617
 C            9.486236            0.142920           -1.326340
 C            8.249656           -0.476384           -0.910368
 C            7.553889            0.035544            0.161762
 C            8.032361            1.176640            0.876775
 C            7.305314            1.716607            1.993882
 C            6.021419            1.106258            2.416684
 C            6.057963            0.032593            3.396803
 C            4.910640           -0.534755            3.838922
 C            3.610814           -0.097727            3.346769
 C            2.434146           -0.663019            3.785319
 C            1.164875           -0.220713            3.286739
 C           -0.041951           -0.791235            3.722234
 C           -1.277315           -0.349473            3.221898
 C           -2.517746           -0.923783            3.654104
 C           -3.722420           -0.484052            3.152216
 C           -4.993598           -1.055788            3.576540
 C           -6.168951           -0.611794            3.071371
 C           -6.193031            0.460446            2.089343
 C           -7.508537            0.930918            1.591625
 C           -8.128962            0.287828            0.464909
 C           -7.511554           -0.823791           -0.187170
 C           -8.105320           -1.434944           -1.268503
 C           -7.485802           -2.571079           -1.945829
 C           -8.070464           -3.171071           -3.003997
 C           -9.353710           -2.712636           -3.525706
 C           -9.991284           -1.601051           -2.891835
 C          -11.237420           -1.135105           -3.381011
 C          -11.833643           -1.779313           -4.491076
 C          -11.203870           -2.856334           -5.093973
 C           -9.966069           -3.326179           -4.616456
 C          -11.861847           -0.010259           -2.725832
 C          -11.272072            0.594005           -1.659391
 C          -10.003554            0.139274           -1.138318
 C           -9.375003           -0.952119           -1.758927
 C           -9.376426            0.776080           -0.006100
 C           -9.977432            1.891287            0.656386
 C           -9.368324            2.484601            1.733931
 C           -8.120292            1.999693            2.209547
 C           -5.036229            1.025106            1.654986
 C           -3.748339            0.583010            2.164787
 C           -2.569233            1.151307            1.738059
 C           -1.305628            0.708570            2.246513
 C           -0.100469            1.281925            1.813128
 C            1.133592            0.837398            2.311506
 C            2.368867            1.412321            1.869971
 C            3.576900            0.969702            2.359960
 C            4.836530            1.547121            1.919386
 C            7.784667            2.814952            2.673871
 C            8.999211            3.433189            2.271916
 C            9.707419            2.940599            1.204327
 C            9.245717            1.798255            0.479415
 C            7.772185           -1.640431           -1.652173
 C            8.456094           -2.142249           -2.701999
 H           12.172452           -1.870214           -5.483386
 H           10.055653           -2.926239           -4.771325
 H           13.059784            0.116227           -4.288246
 H           12.843383            1.804508           -2.478780
 H           11.590602            2.731764           -0.550093
 H            6.617825           -0.424739            0.484860
 H            7.035845           -0.290274            3.754262
 H            4.922081           -1.336585            4.577386
 H            2.444770           -1.463320            4.525071
 H           -0.019334           -1.592332            4.460632
 H           -2.483409           -1.722574            4.394770
 H           -4.960182           -1.855128            4.317045
 H           -7.125286           -1.035815            3.377805
 H           -6.551408           -1.180401            0.191684
 H           -6.525768           -2.914186           -1.558038
 H           -7.604171           -4.019097           -3.506057
 H          -12.790781           -1.421502           -4.866174
 H          -11.665061           -3.351108           -5.948065
 H           -9.492347           -4.173962           -5.108286
 H          -12.818848            0.338173           -3.112989
 H          -11.749607            1.444932           -1.168613
 H          -10.933994            2.264849            0.286605
 H           -9.826718            3.334567            2.237634
 H           -7.655120            2.488584            3.065348
 H           -5.040101            1.824171            0.913171
 H           -2.575352            1.953502            1.000232
 H           -0.123305            2.085157            1.076707
 H            2.329620            2.213419            1.131963
 H            4.795832            2.345562            1.177975
 H            7.238428            3.225814            3.522719
 H            9.351844            4.303621            2.823586
 H           10.638098            3.416891            0.890647
 H            6.834283           -2.087481           -1.320195
 H            8.095322           -3.011265           -3.252663

