68

 C           12.102456           -1.061800           -1.628876
 C           11.850808           -1.745606           -0.403077
 C           10.652142           -1.590373            0.246207
 C            9.638172           -0.738616           -0.298192
 C            8.380490           -0.560478            0.357863
 C            7.418580            0.259786           -0.188091
 C            6.102854            0.432524            0.466855
 C            6.066319            0.896578            1.844881
 C            4.885207            1.062599            2.485734
 C            3.618420            0.784082            1.823578
 C            2.408825            0.947506            2.460828
 C            1.172922            0.668985            1.791203
 C           -0.066143            0.833167            2.430466
 C           -1.269404            0.556544            1.762975
 C           -2.541083            0.720405            2.403403
 C           -3.715254            0.445574            1.739301
 C           -5.017092            0.605121            2.372461
 C           -6.162889            0.331508            1.705244
 C           -6.125408           -0.133388            0.327451
 C           -7.405757           -0.410911           -0.360808
 C           -8.377481            0.558933           -0.468697
 C           -9.600725            0.285963           -1.156272
 C          -10.624052            1.279068           -1.285980
 C          -11.789354            0.992526           -1.950917
 C          -11.996706           -0.297389           -2.522481
 C          -11.032504           -1.267652           -2.414641
 C           -9.807170           -0.997353           -1.726154
 C           -8.782753           -1.988717           -1.596536
 C           -7.616676           -1.705885           -0.933988
 C           -4.934890           -0.301229           -0.308260
 C           -3.676688           -0.020384            0.362750
 C           -2.465694           -0.183911           -0.271943
 C           -1.231978            0.096302            0.399667
 C            0.006085           -0.067674           -0.240051
 C            1.209095            0.209484            0.427732
 C            2.477959            0.046589           -0.215775
 C            3.654047            0.321222            0.446084
 C            4.947283            0.160470           -0.196736
 C            7.674028            0.946928           -1.418094
 C            8.873301            0.790706           -2.062811
 C            9.888630           -0.059332           -1.518944
 C           11.147812           -0.240894           -2.174390
 H           13.063818           -1.205879           -2.119423
 H           12.627881           -2.390937            0.003738
 H           10.450449           -2.109824            1.181760
 H            8.194381           -1.094208            1.289568
 H            7.017840            1.109181            2.332015
 H            4.843735            1.410895            3.517437
 H            2.367144            1.294197            3.493089
 H           -0.094043            1.181562            3.462683
 H           -2.555121            1.070163            3.435370
 H           -5.031058            0.952968            3.405047
 H           -7.140266            0.442515            2.174590
 H           -8.225051            1.550240           -0.042352
 H          -10.456343            2.261585           -0.847354
 H          -12.573600            1.740980           -2.053709
 H          -12.932652           -0.493305           -3.043288
 H          -11.181652           -2.255368           -2.848362
 H           -8.949317           -2.971519           -2.036156
 H           -6.834478           -2.457469           -0.827360
 H           -4.889138           -0.643119           -1.342201
 H           -2.422710           -0.531466           -1.303671
 H            0.034216           -0.415807           -1.272360
 H            2.490995           -0.302013           -1.247961
 H            4.957108           -0.193891           -1.227459
 H            6.897960            1.595831           -1.823963
 H            9.073812            1.309154           -2.999830
 H           11.330459            0.284453           -3.110721

