68

 C            9.418007           -3.029366           -0.369205
 C            8.175013           -2.705443           -0.987340
 C            7.515531           -1.548924           -0.656464
 C            8.065290           -0.648185            0.311100
 C            9.307683           -0.967298            0.919022
 C            9.970748           -2.184019            0.559001
 C            9.875289           -0.070413            1.879165
 C            9.224483            1.089386            2.215007
 C            7.974461            1.413996            1.616657
 C            7.403102            0.570296            0.690443
 C            6.092642            0.916541            0.090567
 C            6.082837            1.767472           -1.088504
 C            4.912291            2.133302           -1.662332
 C            3.634260            1.687042           -1.124347
 C            2.434971            2.059570           -1.688836
 C            1.186781            1.606918           -1.149089
 C           -0.042775            1.986691           -1.710201
 C           -1.257493            1.528603           -1.175734
 C           -2.519978            1.901196           -1.742567
 C           -3.705043            1.452334           -1.204049
 C           -4.997015            1.817378           -1.769347
 C           -6.153868            1.377268           -1.220945
 C           -6.134954            0.525404           -0.042668
 C           -7.433325            0.095799            0.529118
 C           -8.067092            0.890825            1.457831
 C           -9.305835            0.485870            2.030080
 C           -9.882782           -0.704360            1.666866
 C           -9.249512           -1.551785            0.703046
 C           -9.835902           -2.798442            0.313751
 C           -9.221785           -3.595197           -0.618800
 C           -7.990497           -3.190269           -1.212225
 C           -7.403421           -2.003707           -0.852522
 C           -8.018415           -1.152136            0.120242
 C           -4.957351            0.144676            0.517375
 C           -3.687555            0.586070           -0.036334
 C           -2.485557            0.207227            0.518078
 C           -1.241348            0.659669           -0.028432
 C           -0.012572            0.279758            0.532764
 C            1.201244            0.738179           -0.001607
 C            2.459700            0.366342            0.572516
 C            3.646672            0.821402            0.043917
 C            4.929766            0.461946            0.625618
 H            9.915620           -3.956655           -0.648583
 H            7.762133           -3.392409           -1.724386
 H            6.562956           -1.296283           -1.124933
 H           10.918942           -2.421871            1.038532
 H           10.830278           -0.328357            2.333984
 H            9.648524            1.778915            2.943868
 H            7.477558            2.339142            1.908029
 H            7.045273            2.090332           -1.485006
 H            4.887849            2.771814           -2.545223
 H            2.410944            2.709089           -2.563584
 H           -0.054622            2.650531           -2.574300
 H           -2.518585            2.551920           -2.616757
 H           -4.994110            2.457578           -2.651435
 H           -7.126305            1.639071           -1.637685
 H           -7.629033            1.838314            1.771120
 H           -9.780817            1.138661            2.761293
 H          -10.828344           -1.023834            2.101903
 H          -10.776006           -3.097975            0.774234
 H           -9.661149           -4.544574           -0.920613
 H           -7.528195           -3.839939           -1.953773
 H           -6.460125           -1.689070           -1.301897
 H           -4.929862           -0.499339            1.396541
 H           -2.457897           -0.445721            1.390297
 H           -0.000828           -0.381833            1.398588
 H            2.454861           -0.287101            1.444805
 H            4.924244           -0.182123            1.505168

