80

 C           14.276080           -2.745295            0.018703
 C           14.109407           -2.146465            1.315890
 C           12.952903           -1.502616            1.637448
 C           11.871301           -1.407231            0.683546
 C           10.673025           -0.748169            0.993356
 C            9.634841           -0.664580            0.053853
 C            8.395549            0.009680            0.356605
 C            7.391678            0.079171           -0.569111
 C            6.109824            0.750975           -0.261036
 C            6.144273            2.134804            0.186711
 C            4.999822            2.789882            0.493310
 C            3.702617            2.136789            0.385406
 C            2.529563            2.788073            0.694398
 C            1.262057            2.129339            0.580766
 C            0.059688            2.784166            0.891353
 C           -1.175307            2.127466            0.775190
 C           -2.410320            2.784422            1.087394
 C           -3.616068            2.130625            0.969671
 C           -4.881431            2.781791            1.280274
 C           -6.058848            2.125602            1.154636
 C           -6.092152            0.742980            0.703806
 C           -7.407203            0.079295            0.564793
 C           -8.371796            0.589997           -0.258469
 C           -9.642366           -0.076597           -0.409208
 C          -10.639895            0.429927           -1.255256
 C          -11.869013           -0.230475           -1.392267
 C          -12.909420            0.276220           -2.258147
 C          -14.096994           -0.380193           -2.376320
 C          -14.338139           -1.592675           -1.640915
 C          -13.382686           -2.103344           -0.815000
 C          -12.108690           -1.438760           -0.659826
 C          -11.110240           -1.946046            0.184673
 C           -9.881277           -1.285354            0.322288
 C           -8.838286           -1.790387            1.186194
 C           -7.650268           -1.136854            1.304303
 C           -4.938316            0.087671            0.407142
 C           -3.648495            0.747447            0.522522
 C           -2.473943            0.097056            0.216720
 C           -1.208727            0.758658            0.331077
 C           -0.007397            0.103605            0.020193
 C            1.227243            0.761040            0.135527
 C            2.459115            0.102350           -0.180191
 C            3.666501            0.754935           -0.064969
 C            4.923294            0.097398           -0.381727
 C            7.561509           -0.520675           -1.871836
 C            8.717437           -1.164426           -2.190427
 C            9.800310           -1.262018           -1.238028
 C           10.997954           -1.921842           -1.547484
 C           12.037019           -2.004027           -0.608772
 C           13.280027           -2.677785           -0.908164
 H           15.216227           -3.250323           -0.196607
 H           14.930223           -2.223673            2.027015
 H           12.813087           -1.045017            2.615732
 H           10.545844           -0.295507            1.976270
 H            8.280267            0.451842            1.345987
 H            7.117923            2.619429            0.258559
 H            5.012695            3.826602            0.830032
 H            2.542272            3.823754            1.033354
 H            0.085785            3.820197            1.228283
 H           -2.371036            3.820831            1.422052
 H           -4.842721            3.817731            1.617400
 H           -7.009637            2.603923            1.389662
 H           -8.200064            1.503662           -0.827120
 H          -10.455896            1.347368           -1.813508
 H          -12.712918            1.194649           -2.809374
 H          -14.887291           -0.006944           -3.025480
 H          -15.301140           -2.085126           -1.764794
 H          -13.552820           -3.020418           -0.253060
 H          -11.291905           -2.865270            0.740658
 H           -9.031998           -2.709616            1.738434
 H           -6.860025           -1.507582            1.956695
 H           -4.946530           -0.947131            0.064390
 H           -2.485384           -0.939112           -0.121006
 H           -0.033449           -0.932550           -0.316495
 H            2.418544           -0.933904           -0.515378
 H            4.879344           -0.941110           -0.710346
 H            6.742771           -0.437256           -2.586137
 H            8.855109           -1.621629           -3.169954
 H           11.123372           -2.376307           -2.529734
 H           13.393785           -3.126864           -1.893624

