100

 C          -11.313055           -3.023832            4.638581
 C          -10.134985           -2.426917            5.237759
 C           -9.227953           -1.771865            4.475450
 C           -9.406323           -1.645171            3.034345
 C           -8.489577           -0.979771            2.255638
 C           -8.683396           -0.867201            0.837952
 N           -7.766046           -0.209673            0.081531
 C           -7.982764           -0.125059           -1.259365
 C           -9.167398           -0.718949           -1.858299
 N          -10.087439           -1.378615           -1.100951
 C           -9.865933           -1.465436            0.236905
 C          -10.804261           -2.153955            1.076192
 C          -10.591136           -2.246338            2.431237
 C          -11.530246           -2.939410            3.304750
 C           -9.370464           -0.612580           -3.271564
 C           -8.455252            0.046177           -4.058451
 C           -8.647646            0.155730           -5.498910
 C           -7.746786            0.798021           -6.279324
 C           -6.564727            1.399722           -5.696291
 C           -6.336585            1.327997           -4.363398
 C           -7.264369            0.645166           -3.469907
 C           -7.033559            0.554715           -2.108711
 C           -5.814639            1.130211           -1.489520
 C           -5.864190            2.506796           -1.023583
 C           -4.773061            3.081996           -0.464569
 C           -3.524485            2.347641           -0.310132
 C           -2.404162            2.918336            0.252305
 C           -1.184844            2.178584            0.396441
 C           -0.032971            2.749070            0.962243
 C            1.153205            2.009871            1.096794
 C            2.339214            2.577535            1.668327
 C            3.495277            1.839962            1.795207
 C            4.711777            2.399157            2.369590
 C            5.841690            1.661289            2.481679
 C            5.868401            0.279805            2.028218
 C            7.134738           -0.479448            2.168617
 C            7.461578           -1.140392            3.339097
 C            6.586721           -1.117458            4.504947
 C            6.909409           -1.778863            5.641750
 C            8.143322           -2.532260            5.736017
 C            8.998038           -2.586177            4.687335
 C            8.703471           -1.896318            3.437814
 C            9.571730           -1.961291            2.373376
 C            9.268044           -1.285701            1.148181
 N           10.141844           -1.367323            0.106241
 C            9.822990           -0.718316           -1.044206
 C           10.708656           -0.777164           -2.171760
 C           10.395534           -0.123426           -3.339954
 C           11.279095           -0.167566           -4.498742
 C           10.962843            0.480466           -5.644783
 C            9.730990            1.238001           -5.753231
 C            8.871482            1.313531           -4.710030
 C            9.156483            0.639458           -3.449407
 C            8.288088            0.713891           -2.386657
 C            8.586848            0.041692           -1.154140
 N            7.716151            0.122645           -0.114669
 C            8.031144           -0.529293            1.037719
 C            4.762733           -0.292621            1.484929
 C            3.525623            0.458224            1.343263
 C            2.398558           -0.107104            0.791227
 C            1.186512            0.642283            0.649379
 C            0.037242            0.071865            0.082436
 C           -1.146474            0.812461           -0.054705
 C           -2.322174            0.238153           -0.636090
 C           -3.481632            0.968451           -0.768492
 C           -4.678817            0.395736           -1.362367
 H          -12.010098           -3.538523            5.299417
 H          -10.009868           -2.526107            6.315532
 H           -8.336575           -1.318831            4.910382
 H           -7.593940           -0.520626            2.682053
 H          -11.681804           -2.595383            0.598579
 H          -12.410826           -3.384302            2.840948
 H          -10.268649           -1.072197           -3.691569
 H           -9.543736           -0.301223           -5.918905
 H           -7.880853            0.882084           -7.357352
 H           -5.872135            1.908156           -6.366336
 H           -5.448446            1.779791           -3.915237
 H           -6.806326            3.043200           -1.131212
 H           -4.795687            4.111603           -0.108248
 H           -2.423646            3.949859            0.602737
 H           -0.060246            3.783787            1.302490
 H            2.303841            3.614958            1.999526
 H            4.677836            3.436741            2.700955
 H            6.759825            2.074715            2.897765
 H            5.658409           -0.547054            4.424776
 H            6.256081           -1.765465            6.513572
 H            8.353959           -3.047755            6.672574
 H            9.931471           -3.146724            4.739970
 H           10.506997           -2.524395            2.424593
 H           11.628400           -1.356312           -2.063285
 H           12.200930           -0.741810           -4.403962
 H           11.617431            0.454058           -6.515595
 H            9.526369            1.738729           -6.699016
 H            7.940637            1.877529           -4.775754
 H            7.353543            1.278141           -2.441687
 H            4.772504           -1.322755            1.129385
 H            2.408285           -1.140801            0.446295
 H            0.064293           -0.963168           -0.257500
 H           -2.277476           -0.797633           -0.971817
 H           -4.632479           -0.641534           -1.693238

