102

 C            8.466781            2.385009           -0.039026
 C            7.337819            1.867016            0.515192
 C            7.207612            0.444614            0.784612
 C            5.937730           -0.027594            1.380940
 C            5.992925           -0.692023            2.673762
 C            4.861982           -1.140853            3.266829
 C            3.560425           -0.975392            2.635083
 C            2.401770           -1.424233            3.227521
 C            1.127818           -1.244976            2.597044
 C           -0.059005           -1.693872            3.197058
 C           -1.302077           -1.509396            2.572661
 C           -2.520076           -1.966805            3.173602
 C           -3.734949           -1.780681            2.553887
 C           -4.982623           -2.243787            3.145941
 C           -6.169421           -2.052339            2.523520
 C           -6.230059           -1.368145            1.241676
 C           -7.553386           -1.176911            0.608058
 C           -8.031525            0.077900            0.354464
 C           -9.303421            0.215218           -0.289238
 C          -10.053435            1.308287           -0.696147
 C           -9.882177            2.749383           -0.640333
 C          -10.382773            3.565044           -1.670665
 C          -10.189947            4.946841           -1.619549
 C           -9.502485            5.522301           -0.545675
 C           -9.010100            4.713138            0.483629
 C           -9.199272            3.330389            0.443053
 O          -11.227839            0.865238           -1.323223
 C          -11.204718           -0.537358           -1.305863
 C          -12.348799           -1.183196           -1.925360
 C          -13.618130           -0.580039           -1.879225
 C          -14.711254           -1.213499           -2.473152
 C          -14.547467           -2.445723           -3.114618
 C          -13.284931           -3.045699           -3.164581
 C          -12.184804           -2.419369           -2.575402
 C          -10.049265           -0.976069           -0.678247
 C           -9.518295           -2.273290           -0.371707
 C           -8.312952           -2.363415            0.252247
 C           -5.094248           -0.917448            0.645501
 C           -3.794392           -1.104482            1.268001
 C           -2.635769           -0.659151            0.671665
 C           -1.360396           -0.846569            1.296319
 C           -0.173408           -0.400294            0.694809
 C            1.070267           -0.586120            1.318693
 C            2.289119           -0.133531            0.717085
 C            3.503348           -0.311777            1.342604
 C            4.747114            0.150624            0.748641
 C            8.217001           -0.429613            0.493776
 C            9.418906            0.074901           -0.100680
 C           10.599366           -0.519379           -0.520766
 C           11.129807           -1.871411           -0.526587
 C           12.507568           -2.092929           -0.351124
 C           13.006346           -3.396703           -0.338075
 C           12.140165           -4.482902           -0.501374
 C           10.770783           -4.264060           -0.683811
 C           10.261823           -2.963826           -0.699932
 O           11.461891            0.460636           -1.036258
 C           10.800455            1.692732           -0.933316
 C           11.532310            2.835560           -1.451621
 C           12.402460            2.683789           -2.545889
 C           13.077881            3.793697           -3.056637
 C           12.893626            5.055510           -2.481486
 C           12.036861            5.206355           -1.386163
 C           11.358058            4.102248           -0.866699
 C            9.550285            1.503291           -0.365250
 H            8.575730            3.447024           -0.250200
 H            6.495208            2.504973            0.781493
 H            6.970709           -0.805055            3.141971
 H            4.888580           -1.637722            4.236437
 H            2.430564           -1.926539            4.194140
 H           -0.014287           -2.193650            4.164377
 H           -2.459669           -2.469625            4.138472
 H           -4.922167           -2.750686            4.108858
 H           -7.108580           -2.393309            2.958856
 H           -7.474857            0.975279            0.618296
 H          -10.917919            3.110616           -2.505045
 H          -10.574884            5.577547           -2.419663
 H           -9.352477            6.600003           -0.509212
 H           -8.479175            5.162388            1.322001
 H           -8.827665            2.703319            1.252994
 H          -13.739327            0.381249           -1.378644
 H          -15.694314           -0.746043           -2.436354
 H          -15.401763           -2.936580           -3.577784
 H          -13.157079           -4.002695           -3.668526
 H          -11.199461           -2.880905           -2.629388
 H          -10.098892           -3.152576           -0.643717
 H           -7.873186           -3.330411            0.495618
 H           -5.123924           -0.409234           -0.318542
 H           -2.667907           -0.152690           -0.292803
 H           -0.218455            0.099023           -0.272837
 H            2.232026            0.359226           -0.253261
 H            4.689950            0.640804           -0.223377
 H            8.137340           -1.496145            0.695269
 H           13.177909           -1.241955           -0.225248
 H           14.072993           -3.567558           -0.199064
 H           12.531802           -5.498655           -0.488997
 H           10.097912           -5.110085           -0.817234
 H            9.196914           -2.795010           -0.856868
 H           12.541991            1.697404           -2.989762
 H           13.748536            3.675980           -3.906722
 H           13.418258            5.919978           -2.885060
 H           11.899927            6.187725           -0.934047
 H           10.702436            4.219124           -0.004623

