96

 C            7.928291           -5.539022            3.092282
 C            6.717036           -5.472079            2.290741
 C            6.376919           -4.349342            1.618702
 C            7.229534           -3.165909            1.688848
 N            6.888777           -2.061400            1.039075
 C            7.733087           -0.952449            1.123780
 C            8.950207           -1.027560            1.906330
 N            9.287567           -2.198571            2.591322
 C            8.467333           -3.237167            2.496907
 C            8.767408           -4.483511            3.195089
 C            9.811514            0.074650            1.994170
 C            9.482668            1.254402            1.311894
 N           10.345863            2.348718            1.416221
 C           10.023147            3.463583            0.773580
 C           10.884376            4.639359            0.856358
 C           10.549135            5.774323            0.202187
 C            9.339484            5.859529           -0.599862
 C            8.498386            4.807984           -0.722885
 C            8.789827            3.550970           -0.039360
 N            7.960037            2.522417           -0.152745
 C            8.271645            1.339553            0.520510
 C            7.392108            0.234586            0.432323
 C            6.140604            0.314478           -0.353372
 C            6.234603            0.553789           -1.785354
 C            5.117304            0.617755           -2.547288
 C            3.791632            0.462760           -1.964891
 C            2.644544            0.525578           -2.724439
 C            1.348723            0.377060           -2.129823
 C            0.170389            0.438680           -2.891155
 C           -1.091161            0.291602           -2.291989
 C           -2.303667            0.347101           -3.054377
 C           -3.534039            0.198456           -2.453497
 C           -4.776525            0.239280           -3.211970
 C           -5.977824            0.086683           -2.606098
 C           -6.058377           -0.108102           -1.167006
 C           -7.397746           -0.250420           -0.552337
 C           -8.204582           -1.380647           -0.819444
 N           -7.735825           -2.370846           -1.685299
 C           -8.502128           -3.430995           -1.904261
 C           -8.048250           -4.492894           -2.797996
 C           -8.824573           -5.578924           -3.012742
 C          -10.123152           -5.722121           -2.374633
 C          -10.609338           -4.774045           -1.541998
 C           -9.826167           -3.575107           -1.258709
 N          -10.297840           -2.643800           -0.439988
 C           -9.504256           -1.519874           -0.193677
 C           -9.989762           -0.532948            0.675615
 C           -9.199684            0.594758            0.938727
 N           -9.693665            1.572689            1.806754
 C           -8.938836            2.638077            2.043139
 C           -9.403764            3.688130            2.944233
 C           -8.631281            4.773009            3.179400
 C           -7.331353            4.931738            2.547688
 C           -6.838424            3.997869            1.703313
 C           -7.611212            2.794609            1.407994
 N           -7.122053            1.873631            0.588816
 C           -7.895644            0.741649            0.324663
 C           -4.930355           -0.152883           -0.409335
 C           -3.617327           -0.011886           -1.017197
 C           -2.465384           -0.070167           -0.265117
 C           -1.176462            0.076154           -0.871502
 C            0.000154            0.013702           -0.109931
 C            1.259939            0.158745           -0.709936
 C            2.464644            0.093238            0.061420
 C            3.698996            0.237093           -0.531573
 C            4.927124            0.163102            0.242493
 H            8.134150           -6.478641            3.608041
 H            6.092775           -6.366291            2.252094
 H            5.475337           -4.272077            1.005434
 H            9.684425           -4.509480            3.788400
 H           10.729429            0.015629            2.589238
 H           11.788508            4.547921            1.462843
 H           11.177355            6.665277            0.255359
 H            9.137225            6.808158           -1.099806
 H            7.583465            4.844666           -1.319521
 H            7.228829            0.683345           -2.212207
 H            5.174510            0.789904           -3.621405
 H            2.700040            0.690541           -3.799796
 H            0.236009            0.603168           -3.966212
 H           -2.227581            0.509645           -4.128845
 H           -4.701151            0.394148           -4.287584
 H           -6.911201            0.100108           -3.167652
 H           -7.069474           -4.359439           -3.265732
 H           -8.501255           -6.384745           -3.673698
 H          -10.691304           -6.627461           -2.595286
 H          -11.582677           -4.855541           -1.052553
 H          -10.973956           -0.642172            1.144162
 H          -10.385183            3.547034            3.402918
 H           -8.960268            5.567369            3.851682
 H           -6.768783            5.837046            2.781886
 H           -5.866781            4.093213            1.211497
 H           -4.975321           -0.285761            0.671359
 H           -2.513158           -0.229190            0.811788
 H           -0.065610           -0.150432            0.965115
 H            2.380728           -0.075674            1.134655
 H            4.838569           -0.029485            1.311838

