100

 C           18.663812           -0.520348            3.064294
 C           17.750646            0.439382            2.781355
 C           16.457810            0.094884            2.213847
 C           15.493191            1.024866            1.906955
 C           14.238753            0.610399            1.348148
 C           13.222214            1.514330            1.016722
 C           12.012135            1.050327            0.469274
 N           11.027553            1.985311            0.149924
 C            9.879203            1.559519           -0.370372
 C            8.851670            2.544302           -0.707270
 C            7.670097            2.154685           -1.234857
 C            7.383694            0.747513           -1.482713
 C            6.062050            0.391158           -2.043696
 C            6.021229           -0.385128           -3.273244
 C            4.838326           -0.762491           -3.812445
 C            3.573265           -0.403209           -3.186799
 C            2.362079           -0.782825           -3.719934
 C            1.126595           -0.414065           -3.093995
 C           -0.114561           -0.788848           -3.631799
 C           -1.317367           -0.415393           -3.011421
 C           -2.591450           -0.785208           -3.552976
 C           -3.764608           -0.407080           -2.939342
 C           -5.068106           -0.766665           -3.479653
 C           -6.212659           -0.390683           -2.862303
 C           -6.171923            0.383294           -1.631176
 C           -7.453873            0.735500           -0.982449
 C           -7.718562            2.139048           -0.693382
 C           -8.863791            2.523397           -0.087282
 C           -9.873127            1.536457            0.294776
 N          -10.986384            1.956995            0.890709
 C          -11.953947            1.019897            1.252173
 C          -13.127376            1.478243            1.879270
 C          -14.126120            0.572101            2.254674
 C          -15.343326            0.980798            2.894854
 C          -16.292013            0.048841            3.241976
 C          -17.547314            0.387552            3.891655
 C          -18.446344           -0.573968            4.211051
 C          -18.184949           -1.970445            3.915019
 C          -17.036729           -2.353104            3.311386
 C          -16.027774           -1.361083            2.942649
 N          -14.910884           -1.777171            2.350261
 C          -13.944166           -0.837250            1.995456
 C          -12.770803           -1.296043            1.370284
 C          -11.772791           -0.389810            0.994403
 C          -10.559030           -0.803847            0.353294
 C           -9.610065            0.125958           -0.000586
 C           -8.361378           -0.221677           -0.650863
 C           -4.979930            0.754012           -1.091360
 C           -3.722667            0.377591           -1.716251
 C           -2.508693            0.740857           -1.176701
 C           -1.276431            0.362171           -1.800836
 C           -0.035488            0.733764           -1.260499
 C            1.166258            0.363797           -1.883437
 C            2.437563            0.744489           -1.344087
 C            3.612587            0.382642           -1.964235
 C            4.908615            0.761780           -1.426018
 C            8.306611           -0.207984           -1.191812
 C            9.593958            0.145161           -0.624667
 C           10.559071           -0.782547           -0.311996
 C           11.810838           -0.362933            0.248036
 C           12.825981           -1.266847            0.580123
 C           14.036587           -0.802401            1.125920
 N           15.019073           -1.740275            1.439634
 C           16.171081           -1.318791            1.956719
 C           17.196451           -2.308727            2.282966
 C           18.380166           -1.920625            2.809954
 H           19.636017           -0.274110            3.489867
 H           17.951989            1.494159            2.967798
 H           15.659262            2.089150            2.080184
 H           13.355138            2.586734            1.177698
 H            9.092103            3.591890           -0.511801
 H            6.896988            2.879240           -1.496430
 H            6.971023           -0.641264           -3.741998
 H            4.795027           -1.345749           -4.732482
 H            2.319834           -1.374076           -4.634562
 H           -0.145287           -1.378067           -4.548105
 H           -2.610400           -1.375916           -4.468734
 H           -5.085970           -1.348750           -4.401269
 H           -7.191395           -0.646332           -3.267421
 H           -6.960358            2.865864           -0.990037
 H           -9.086997            3.568212            0.140663
 H          -13.245461            2.548055            2.066735
 H          -15.493732            2.042341            3.096693
 H          -17.732284            1.439451            4.108663
 H          -19.390514           -0.332199            4.697879
 H          -18.947757           -2.697030            4.196742
 H          -16.811064           -3.394770            3.075151
 H          -12.652797           -2.366074            1.184034
 H          -10.411465           -1.866775            0.156034
 H           -8.174798           -1.276908           -0.854410
 H           -4.930147            1.333901           -0.169490
 H           -2.461271            1.327224           -0.259169
 H           -0.004869            1.320413           -0.342353
 H            2.451331            1.331186           -0.425648
 H            4.920197            1.343972           -0.504306
 H            8.104529           -1.265519           -1.366287
 H           10.396325           -1.848092           -0.481106
 H           12.693384           -2.339509            0.420899
 H           16.953293           -3.353434            2.079977
 H           19.155593           -2.645769            3.059187

