100

 C           18.164190            2.323186           -3.552770
 C           17.016754            1.610008           -3.647180
 C           15.990646            1.710067           -2.622760
 C           14.808907            1.010592           -2.668440
 C           13.839081            1.158179           -1.621838
 C           12.621607            0.468742           -1.621337
 C           11.705644            0.650287           -0.568754
 N           10.505553           -0.057251           -0.610804
 C            9.627273            0.102294            0.377665
 C            8.370809           -0.636991            0.322802
 C            7.445411           -0.504182            1.307958
 C            6.156823           -1.230837            1.253340
 C            6.185814           -2.677284            1.102402
 C            5.035363           -3.387016            1.028770
 C            3.736278           -2.732308            1.098507
 C            2.556516           -3.438100            1.021455
 C            1.287661           -2.775565            1.096742
 C            0.078215           -3.484732            1.025609
 C           -1.157441           -2.823024            1.107122
 C           -2.399723           -3.534638            1.042536
 C           -3.605607           -2.875248            1.127528
 C           -4.877809           -3.581279            1.067829
 C           -6.054848           -2.916917            1.142627
 C           -6.082527           -1.469308            1.284798
 C           -7.400923           -0.797267            1.329266
 C           -7.692078            0.081720            2.454333
 C           -8.875091            0.733888            2.540945
 C           -9.895980            0.576654            1.518827
 C          -11.113775            1.212921            1.559922
 C          -12.076048            1.002003            0.517269
 C          -13.332717            1.619508            0.511396
 C          -14.239244            1.371927           -0.535567
 N          -15.481558            2.005394           -0.500261
 C          -16.349558            1.779610           -1.483944
 C          -17.651122            2.445329           -1.441988
 C          -18.557693            2.240263           -2.424741
 C          -18.269044            1.360087           -3.541839
 C          -17.080891            0.716452           -3.632234
 C          -16.060003            0.890082           -2.612353
 C          -14.838719            0.262091           -2.654092
 C          -13.876783            0.479631           -1.612337
 C          -12.621060           -0.137026           -1.607867
 C          -11.715284            0.109449           -0.559585
 N          -10.477651           -0.530149           -0.596061
 C           -9.609088           -0.311408            0.389735
 C           -8.316521           -0.985828            0.343894
 C           -4.921991           -0.763834            1.355744
 C           -3.631791           -1.429913            1.280388
 C           -2.449601           -0.726067            1.344355
 C           -1.184245           -1.392360            1.262322
 C            0.024635           -0.682592            1.330271
 C            1.259373           -1.344917            1.252386
 C            2.498393           -0.629847            1.325788
 C            3.706346           -1.287314            1.254035
 C            4.969590           -0.571652            1.327606
 C            7.692574            0.372120            2.445851
 C            8.840896            1.082029            2.542006
 C            9.866966            0.991590            1.517011
 C           11.047322            1.694202            1.564267
 C           12.017399            1.549997            0.517545
 C           13.235666            2.239873            0.516341
 C           14.151755            2.058097           -0.535807
 N           15.353883            2.764441           -0.496257
 C           16.230349            2.602577           -1.485057
 C           17.489207            3.345643           -1.439042
 C           18.402989            3.207014           -2.426778
 H           18.940350            2.257035           -4.314561
 H           16.824888            0.942737           -4.487267
 H           14.584310            0.333947           -3.494227
 H           12.366746           -0.216037           -2.433689
 H            8.215589           -1.282174           -0.545540
 H            7.161187           -3.161768            1.054246
 H            5.044345           -4.471195            0.914554
 H            2.563850           -4.521331            0.901452
 H            0.098621           -4.567911            0.905625
 H           -2.365849           -4.617507            0.923732
 H           -4.844496           -4.665612            0.959757
 H           -7.010571           -3.439762            1.101844
 H           -6.924648            0.186577            3.221982
 H           -9.101247            1.395032            3.378311
 H          -11.373404            1.885150            2.379403
 H          -13.624331            2.297811            1.316659
 H          -17.842426            3.101857           -0.590821
 H          -19.532392            2.728734           -2.408712
 H          -19.041944            1.238501           -4.300070
 H          -16.851246            0.052422           -4.465394
 H          -14.576183           -0.409622           -3.472691
 H          -12.328199           -0.814955           -2.413132
 H           -8.127931           -1.632138           -0.517058
 H           -4.921620            0.321414            1.457493
 H           -2.454448            0.357871            1.457597
 H            0.004131            0.400922            1.445997
 H            2.461945            0.453420            1.439668
 H            4.927101            0.512460            1.433142
 H            6.921029            0.426938            3.214592
 H            9.034012            1.741810            3.388650
 H           11.270474            2.370473            2.391143
 H           13.489445            2.924838            1.328750
 H           17.643145            4.003040           -0.580987
 H           19.346091            3.753932           -2.408147

