100

 C           -9.676497            3.100915           -6.767989
 C           -8.417668            3.725948           -6.406086
 C           -7.789612            3.415439           -5.249098
 C           -8.370669            2.436786           -4.330718
 N           -7.724502            2.158503           -3.200965
 C           -8.273715            1.227528           -2.319916
 C           -7.577894            0.946369           -1.129744
 C           -8.092770            0.019856           -0.215132
 C           -7.426251           -0.307013            1.011919
 C           -7.970108           -1.226189            1.877900
 C           -9.244654           -1.851133            1.514183
 N           -9.891340           -1.572116            0.383922
 C           -9.342384           -0.645070           -0.500291
 C          -10.037666           -0.364828           -1.691066
 C           -9.523026            0.561156           -2.605376
 C          -10.188931            0.887089           -3.833741
 C           -9.642103            1.805958           -4.696983
 C          -10.259896            2.186946           -5.956406
 C           -9.836388           -2.824359            2.429815
 C           -9.216788           -3.135766            3.591032
 C           -7.954601           -2.525935            3.955246
 C           -7.351687           -1.620211            3.140874
 C           -6.044329           -1.023838            3.507717
 C           -6.040237            0.183645            4.316669
 C           -4.871612            0.762328            4.681790
 C           -3.589434            0.201295            4.276949
 C           -2.391384            0.777720            4.636831
 C           -1.139801            0.211729            4.226527
 C            0.089420            0.790165            4.583118
 C            1.306452            0.225191            4.169146
 C            2.569957            0.804848            4.520602
 C            3.755897            0.239244            4.108157
 C            5.049662            0.812366            4.455557
 C            6.206416            0.236269            4.051093
 C            6.186562           -0.979667            3.254950
 C            7.483253           -1.587672            2.870001
 C            8.131503           -2.421116            3.726413
 C            9.383686           -3.047994            3.358276
 C            9.949867           -2.824001            2.150651
 C            9.308610           -1.930628            1.188366
 N            9.906084           -1.735789            0.014210
 C            9.311843           -0.885479           -0.915987
 C            9.956948           -0.694564           -2.151997
 C            9.396757            0.152156           -3.114491
 C           10.010791            0.384551           -4.390358
 C            9.420381            1.226979           -5.301178
 C            9.984229            1.510561           -6.610670
 C            9.358505            2.350220           -7.469511
 C            8.107242            2.991089           -7.108913
 C            7.528834            2.770206           -5.906387
 C            8.156751            1.874192           -4.935771
 N            7.558486            1.682053           -3.762620
 C            8.152095            0.828887           -2.832446
 C            7.506929            0.637272           -1.596895
 C            8.067203           -0.210346           -0.633157
 C            7.454253           -0.445380            0.642053
 C            8.042562           -1.289540            1.554518
 C            5.007949           -1.549973            2.893156
 C            3.738535           -0.970393            3.301885
 C            2.537156           -1.543003            2.950316
 C            1.292430           -0.970168            3.367394
 C            0.065412           -1.549649            3.011691
 C           -1.150223           -0.983154            3.424228
 C           -2.406496           -1.567832            3.063005
 C           -3.596551           -1.005967            3.467257
 C           -4.877428           -1.590050            3.103859
 H          -10.130121            3.395010           -7.714083
 H           -7.998626            4.453395           -7.101813
 H           -6.841844            3.868663           -4.951187
 H           -6.633721            1.460549           -0.932930
 H           -6.479427            0.191234            1.238321
 H          -10.980715           -0.879530           -1.888188
 H          -11.133021            0.389692           -4.060528
 H          -11.204695            1.710672           -6.217725
 H          -10.784408           -3.273606            2.126967
 H           -9.644537           -3.858654            4.286890
 H           -7.503106           -2.824712            4.901783
 H           -7.004338            0.596475            4.612991
 H           -4.853120            1.666650            5.290447
 H           -2.371687            1.682724            5.243791
 H            0.098631            1.694067            5.192041
 H            2.568678            1.710846            5.126400
 H            5.049555            1.722806            5.055304
 H            7.178762            0.657671            4.305525
 H            7.723506           -2.647672            4.712033
 H            9.848301           -3.710464            4.089713
 H           10.889242           -3.287971            1.842998
 H           10.896975           -1.216195           -2.345527
 H           10.950693           -0.122031           -4.614337
 H           10.923759            1.022910           -6.870162
 H            9.771077            2.570658           -8.453692
 H            7.652400            3.655765           -7.843852
 H            6.588073            3.237792           -5.608566
 H            6.565747            1.158099           -1.403461
 H            6.511982            0.061532            0.867850
 H            4.978520           -2.460088            2.293546
 H            2.509854           -2.449491            2.345498
 H            0.055943           -2.454116            2.403462
 H           -2.397925           -2.473412            2.456269
 H           -4.866426           -2.496101            2.497539

