96

 C           11.153626            1.320003            3.971021
 C            9.862192            1.191719            4.419648
 C            8.791479            1.005333            3.489975
 C            9.072448            0.894192            2.103280
 C           10.419804            1.108040            1.654393
 C           11.430816            1.299787            2.578945
 C           10.683991            1.134068            0.206557
 C           11.902383            1.566278           -0.287350
 C           12.190138            1.519769           -1.675093
 C           11.262833            1.014020           -2.550893
 C            9.989589            0.572377           -2.075547
 C            9.664370            0.677858           -0.699374
 C            8.344943            0.308327           -0.233766
 C            7.480516           -0.301421           -1.132291
 C            6.158975           -0.877890           -0.791258
 C            6.123777           -2.113488           -0.023849
 C            4.945140           -2.718017            0.251206
 C            3.678969           -2.148812           -0.189535
 C            2.470396           -2.748358            0.086452
 C            1.233771           -2.158604           -0.335427
 C           -0.005795           -2.749991           -0.044597
 C           -1.209499           -2.155018           -0.455041
 C           -2.483045           -2.740563           -0.154784
 C           -3.657372           -2.137752           -0.547908
 C           -4.961947           -2.701423           -0.230119
 C           -6.106667           -2.093778           -0.620244
 C           -6.062233           -0.861458           -1.392162
 C           -7.342090           -0.282152           -1.863586
 C           -8.287003            0.337555           -1.057753
 C           -8.085530            0.643014            0.375878
 C           -6.840674            0.676939            0.972326
 C           -6.691755            0.852748            2.377105
 C           -7.790316            0.999139            3.182485
 C           -9.095839            1.055918            2.600376
 C           -9.238408            0.940330            1.193045
 C          -10.532963            1.161462            0.611910
 C          -11.629272            1.365512            1.430499
 C          -11.491531            1.390748            2.843116
 C          -10.252169            1.254527            3.418370
 C          -10.652287            1.181101           -0.855047
 C          -11.812822            1.618402           -1.469169
 C          -11.962601            1.565149           -2.878184
 C          -10.957339            1.047489           -3.655401
 C           -9.740396            0.600338           -3.054210
 C           -9.551576            0.712408           -1.653287
 C           -8.710248            0.020660           -3.859022
 C           -7.561187           -0.429765           -3.272202
 C           -4.869772           -0.296914           -1.721499
 C           -3.614869           -0.895266           -1.301800
 C           -2.402249           -0.318185           -1.606195
 C           -1.170325           -0.920426           -1.193279
 C            0.068506           -0.331974           -1.490421
 C            1.270356           -0.923212           -1.072952
 C            2.538610           -0.323552           -1.361498
 C            3.713998           -0.904346           -0.940785
 C            5.005360           -0.308310           -1.233457
 C            7.835938           -0.441613           -2.513492
 C            9.039938            0.004796           -2.981591
 C            8.004449            0.608542            1.174346
 C            6.706739            0.648713            1.644211
 C            6.420135            0.820133            3.027987
 C            7.434192            0.955996            3.939251
 H           11.980495            1.449837            4.668484
 H            9.635077            1.232193            5.483885
 H           12.462348            1.443855            2.255026
 H           12.671583            1.943908            0.387467
 H           13.158558            1.876858           -2.024392
 H           11.480305            0.939701           -3.614958
 H            7.075655           -2.526088            0.312434
 H            4.904938           -3.650028            0.815459
 H            2.429334           -3.689031            0.634625
 H           -0.034339           -3.686407            0.511699
 H           -2.498427           -3.680433            0.396126
 H           -4.980334           -3.631346            0.338555
 H           -7.088003           -2.501790           -0.376160
 H           -5.921857            0.574579            0.394596
 H           -5.684704            0.853617            2.794761
 H           -7.690911            1.093248            4.262254
 H          -12.622374            1.515485            1.005190
 H          -12.382519            1.530557            3.454322
 H          -10.131619            1.298011            4.499745
 H          -12.642194            2.005169           -0.875749
 H          -12.889370            1.926333           -3.323239
 H          -11.069404            0.967609           -4.735244
 H           -8.866657           -0.067987           -4.932920
 H           -6.782582           -0.907694           -3.869635
 H           -4.822242            0.622755           -2.304290
 H           -2.355865            0.612699           -2.170562
 H            0.097129            0.601949           -2.051779
 H            2.550023            0.608554           -1.925529
 H            5.017722            0.613581           -1.814099
 H            7.116921           -0.910503           -3.187722
 H            9.300524           -0.078363           -4.035499
 H            5.849266            0.554943            0.977623
 H            5.376648            0.826280            3.343514
 H            7.228479            1.047145            5.004099

