102

 C           -8.461456           -0.219747           -8.580346
 C           -7.774042            0.192279           -7.488242
 C           -8.349996            0.087181           -6.154628
 C           -7.667479            0.502154           -5.033252
 C           -8.247779            0.395474           -3.727358
 C           -7.557301            0.821413           -2.580707
 C           -8.136389            0.713770           -1.308899
 C           -7.472008            1.135021           -0.110888
 C           -8.088795            1.005082            1.112055
 C           -7.482709            1.401495            2.379199
 C           -6.110773            1.964929            2.379497
 C           -5.951407            3.389533            2.137930
 C           -4.723131            3.959001            2.169426
 C           -3.528258            3.169644            2.438091
 C           -2.272542            3.733725            2.485038
 C           -1.108450            2.939694            2.750016
 C            0.178537            3.500239            2.797464
 C            1.308936            2.706801            3.052721
 C            2.630619            3.261046            3.097666
 C            3.730362            2.470057            3.346537
 C            5.081279            3.013746            3.395500
 C            6.150105            2.222817            3.652272
 C            5.975285            0.799264            3.889330
 C            7.177129           -0.012035            4.200641
 C            7.822763           -0.762782            3.128368
 C            7.405628           -0.745148            1.817392
 C            8.092059           -1.518237            0.825466
 C            7.709839           -1.539739           -0.522873
 C            8.411249           -2.315426           -1.459995
 C            8.030002           -2.345429           -2.841056
 C            8.721265           -3.106039           -3.756726
 C            8.345709           -3.145116           -5.163395
 C            9.038279           -3.898838           -6.050462
 C           10.174750           -4.689562           -5.621850
 C           10.567573           -4.690990           -4.325389
 C            9.861908           -3.899904           -3.325925
 C           10.244917           -3.886970           -2.004018
 C            9.540725           -3.101668           -1.032877
 C            9.929430           -3.084519            0.314051
 C            9.224989           -2.306215            1.248821
 N            9.647319           -2.315434            2.577053
 C            8.986295           -1.583720            3.472393
 C            9.449389           -1.603109            4.858439
 C            8.813718           -0.871638            5.801936
 C            7.659322           -0.062992            5.470908
 C            4.738829            0.238346            3.845240
 C            3.559323            1.044211            3.573617
 C            2.299581            0.490491            3.535447
 C            1.143211            1.294333            3.274493
 C           -0.142210            0.733800            3.230379
 C           -1.270368            1.526663            2.970832
 C           -2.585030            0.960669            2.920328
 C           -3.688879            1.742509            2.664471
 C           -5.029209            1.180090            2.623764
 C           -8.157828            1.247735            3.549451
 C           -9.490096            0.681768            3.577616
 C          -10.105328            0.285461            2.440438
 C           -9.435220            0.428532            1.149498
 N          -10.081862            0.026216            0.057171
 C           -9.461440            0.154714           -1.184278
 C          -10.155490           -0.273526           -2.328725
 C           -9.570424           -0.161173           -3.597887
 C          -10.261416           -0.588323           -4.778985
 C           -9.685797           -0.474131           -6.023963
 C          -10.375743           -0.900689           -7.234030
 C           -9.792239           -0.778726           -8.450486
 H           -8.040507           -0.145157           -9.581913
 H           -6.772985            0.614008           -7.571135
 H           -6.665633            0.923186           -5.118737
 H           -6.556282            1.242174           -2.681226
 H           -6.468305            1.559509           -0.192440
 H           -6.851468            3.971278            1.938648
 H           -4.589602            5.027108            1.997509
 H           -2.138358            4.802669            2.320557
 H            0.302217            4.570540            2.633385
 H            2.744541            4.331605            2.928427
 H            5.197623            4.083143            3.219272
 H            7.164534            2.619895            3.690671
 H            6.546452           -0.144616            1.508280
 H            6.855129           -0.945753           -0.848259
 H            7.173105           -1.747486           -3.151692
 H            7.488998           -2.546621           -5.471160
 H            8.766185           -3.935088           -7.104255
 H           10.695146           -5.277057           -6.377133
 H           11.419725           -5.280799           -3.989064
 H           11.096934           -4.477153           -1.665563
 H           10.783115           -3.674109            0.655455
 H           10.317187           -2.228279            5.078776
 H            9.146524           -0.871662            6.840510
 H            7.186252            0.496797            6.278058
 H            4.593676           -0.828284            4.018934
 H            2.157359           -0.576738            3.705902
 H           -0.266397           -0.335822            3.399544
 H           -2.691760           -0.110478            3.092104
 H           -5.134103            0.109535            2.801862
 H           -7.714342            1.543001            4.500746
 H           -9.975001            0.584771            4.549632
 H          -11.106632           -0.150157            2.429543
 H          -11.156745           -0.693975           -2.211758
 H          -11.261225           -1.007946           -4.664445
 H          -11.375358           -1.319248           -7.121149
 H          -10.299229           -1.093967           -9.361499

