102

 C           18.293278           -2.487441           -2.031295
 C           17.260219           -1.614012           -2.100276
 C           16.026139           -1.851725           -1.364426
 C           14.965797           -0.975953           -1.422498
 C           13.757544           -1.222081           -0.693187
 C           12.674631           -0.330241           -0.750535
 C           11.497742           -0.579506           -0.032632
 C           10.370180            0.303590           -0.063047
 C            9.239847            0.009819            0.663435
 C            8.061515            0.854817            0.675356
 C            6.966159            0.519153            1.408273
 C            5.752697            1.365277            1.408672
 C            5.888566            2.766175            1.777026
 C            4.813569            3.589021            1.770711
 C            3.491724            3.104150            1.398668
 C            2.390012            3.930094            1.380293
 C            1.095512            3.434546            1.016143
 C           -0.036356            4.265561            0.995809
 C           -1.297958            3.766736            0.634611
 C           -2.463759            4.601278            0.609187
 C           -3.694356            4.098598            0.249594
 C           -4.893141            4.926061            0.218288
 C           -6.097901            4.409958           -0.123030
 C           -6.229689            3.003324           -0.466715
 C           -7.568370            2.464468           -0.790293
 C           -8.330376            3.078044           -1.868365
 C           -9.544313            2.600881           -2.224312
 C          -10.129505            1.452990           -1.531523
 N          -11.323906            1.008934           -1.917271
 C          -11.881024           -0.088707           -1.260213
 C          -13.142446           -0.553789           -1.670748
 C          -13.738201           -1.653142           -1.034440
 C          -15.025675           -2.143059           -1.431318
 C          -15.606031           -3.220664           -0.800751
 C          -16.914016           -3.729583           -1.190250
 C          -17.467708           -4.791502           -0.556985
 C          -16.772332           -5.452618            0.529273
 C          -15.553637           -5.020977            0.933367
 C          -14.908986           -3.884764            0.289613
 C          -13.671221           -3.432190            0.686438
 C          -13.049392           -2.311925            0.045758
 C          -11.788695           -1.847039            0.452211
 C          -11.190304           -0.747652           -0.176590
 C           -9.908545           -0.240037            0.211374
 C           -9.366193            0.841861           -0.441786
 C           -8.070811            1.399750           -0.108229
 C           -5.137998            2.191642           -0.470869
 C           -3.824183            2.696239           -0.110847
 C           -2.718500            1.876184           -0.093038
 C           -1.430054            2.378157            0.278693
 C           -0.300842            1.545693            0.302770
 C            0.959684            2.045584            0.663561
 C            2.118584            1.204339            0.687971
 C            3.353207            1.701790            1.041136
 C            4.538144            0.860053            1.063550
 C            6.955564           -0.698899            2.207520
 C            8.024072           -1.526077            2.235456
 C            9.225416           -1.218678            1.460149
 N           10.253075           -2.063242            1.510600
 C           11.402435           -1.772380            0.775616
 C           12.483900           -2.668223            0.833700
 C           13.659709           -2.411882            0.113051
 C           14.776213           -3.309786            0.158211
 C           15.928185           -3.053334           -0.550620
 C           17.071375           -3.955261           -0.515705
 C           18.196078           -3.685049           -1.220864
 H           19.220261           -2.319218           -2.577617
 H           17.317036           -0.709714           -2.705119
 H           15.025479           -0.072462           -2.028940
 H           12.750516            0.568623           -1.362647
 H           10.431204            1.206012           -0.672385
 H            8.083458            1.760225            0.068224
 H            6.878707            3.120859            2.062842
 H            4.902847            4.640230            2.045288
 H            2.483002            4.983545            1.644209
 H            0.067059            5.316567            1.265235
 H           -2.352058            5.650104            0.884279
 H           -4.782745            5.977872            0.483150
 H           -6.998656            5.023247           -0.141924
 H           -7.879479            3.927368           -2.383550
 H          -10.133270            3.038774           -3.033372
 H          -13.651318           -0.045468           -2.492738
 H          -15.537334           -1.636951           -2.250422
 H          -17.425498           -3.223103           -2.008041
 H          -18.444946           -5.179006           -0.841220
 H          -17.263277           -6.301333            1.003292
 H          -15.017665           -5.506037            1.748436
 H          -13.137177           -3.920266            1.501472
 H          -11.268242           -2.348135            1.268617
 H           -9.379260           -0.729844            1.029606
 H           -7.516596            0.935320            0.708165
 H           -5.214900            1.139073           -0.745012
 H           -2.803140            0.823482           -0.362257
 H           -0.404749            0.493883            0.036301
 H            1.998493            0.155308            0.417521
 H            4.417767           -0.186831            0.783164
 H            6.055270           -0.913404            2.785338
 H            8.041698           -2.444566            2.826492
 H           12.393973           -3.566291            1.448857
 H           14.689165           -4.206771            0.772026
 H           16.984134           -4.851351            0.097800
 H           19.055693           -4.353396           -1.201297

