102

 C           18.314663            2.009105            4.302180
 C           17.503665            2.484872            3.326965
 C           16.224162            1.851747            3.038586
 C           15.386075            2.320953            2.052301
 C           14.129925            1.687687            1.780082
 C           13.270964            2.162161            0.775294
 C           12.045564            1.533123            0.517736
 C           11.138622            1.979417           -0.498344
 C            9.950470            1.318916           -0.705819
 C            8.983790            1.705995           -1.718861
 C            7.826828            1.021874           -1.879917
 C            7.511250           -0.125705           -1.039858
 C            6.220369           -0.818297           -1.253031
 C            6.240273           -2.253316           -1.492016
 C            5.086728           -2.939752           -1.667052
 C            3.793595           -2.270885           -1.623670
 C            2.611139           -2.955578           -1.793034
 C            1.347982           -2.279279           -1.751556
 C            0.136239           -2.965638           -1.927648
 C           -1.093948           -2.289982           -1.890475
 C           -2.337914           -2.977186           -2.075455
 C           -3.538101           -2.302935           -2.041770
 C           -4.811584           -2.982899           -2.233768
 C           -5.983544           -2.306517           -2.193148
 C           -6.003944           -0.871678           -1.952819
 C           -7.316988           -0.190565           -1.893382
 C           -7.534815            0.965866           -2.752249
 C           -8.709394            1.638627           -2.730517
 C           -9.793414            1.229199           -1.854390
 C          -11.005704            1.875618           -1.792997
 C          -12.030796            1.406104           -0.908363
 C          -13.286602            2.019239           -0.803326
 C          -14.262662            1.521551            0.075179
 C          -15.551027            2.138130            0.190546
 C          -16.504207            1.646003            1.053290
 C          -17.817987            2.261600            1.181170
 C          -18.743030            1.763024            2.036000
 C          -18.448467            0.599649            2.848630
 C          -17.242935           -0.012872            2.769836
 C          -16.209117            0.477950            1.868623
 C          -14.978526           -0.130695            1.773850
 C          -13.971156            0.364237            0.882269
 C          -12.717051           -0.254339            0.783553
 C          -11.742897            0.246508           -0.097237
 N          -10.510594           -0.401499           -0.162139
 C           -9.580812            0.062435           -0.995645
 C           -8.294340           -0.622676           -1.054916
 C           -4.841686           -0.188363           -1.773577
 C           -3.556722           -0.867846           -1.809622
 C           -2.372573           -0.188303           -1.627395
 C           -1.112553           -0.868686           -1.663240
 C            0.098665           -0.182234           -1.483707
 C            1.328128           -0.857807           -1.524914
 C            2.570225           -0.166282           -1.347492
 C            3.773043           -0.835431           -1.393175
 C            5.039635           -0.144758           -1.211261
 C            8.377959           -0.538691           -0.079065
 C            9.640261            0.160648            0.134666
 N           10.459440           -0.282350            1.086978
 C           11.666652            0.380795            1.301369
 C           12.523377           -0.097048            2.307817
 C           13.747865            0.537752            2.559329
 C           14.635953            0.066526            3.580910
 C           15.837683            0.691062            3.825595
 C           16.750773            0.224358            4.860095
 C           17.929311            0.852695            5.086166
 H           19.273086            2.475620            4.525825
 H           17.779868            3.352326            2.728865
 H           15.664730            3.189300            1.455612
 H           13.562301            3.032228            0.186844
 H           11.412712            2.848124           -1.098231
 H            9.227650            2.565805           -2.343182
 H            7.100162            1.301235           -2.643018
 H            7.211668           -2.747710           -1.526103
 H            5.089587           -4.015339           -1.845286
 H            2.613672           -4.032435           -1.962398
 H            0.150577           -4.041982           -2.097719
 H           -2.311868           -4.053800           -2.244406
 H           -4.784636           -4.058279           -2.411252
 H           -6.940088           -2.809201           -2.339826
 H           -6.720365            1.261666           -3.413784
 H           -8.880159            2.505300           -3.369421
 H          -11.210061            2.750068           -2.412012
 H          -13.509520            2.894774           -1.413136
 H          -15.760306            3.012186           -0.425811
 H          -18.024689            3.134753            0.563658
 H          -19.728238            2.215758            2.138800
 H          -19.228176            0.240671            3.518844
 H          -17.006992           -0.888342            3.374080
 H          -14.742590           -1.007046            2.378250
 H          -12.480037           -1.132543            1.388398
 H           -8.161917           -1.481248           -0.391705
 H           -4.837962            0.885549           -1.585404
 H           -2.371662            0.887001           -1.450692
 H            0.083923            0.893579           -1.309443
 H            2.539838            0.909028           -1.173445
 H            5.005339            0.929393           -1.027528
 H            8.169679           -1.390992            0.572593
 H           12.218862           -0.970005            2.889563
 H           14.332480           -0.804513            4.162378
 H           16.447573           -0.646223            5.440905
 H           18.618880            0.511865            5.857122

