102

 C           16.795747           -5.444919           -0.638741
 C           15.800725           -6.106498           -1.461692
 C           14.577167           -5.561816           -1.651103
 C           14.229453           -4.285885           -1.026889
 N           13.015615           -3.781712           -1.237932
 C           12.677847           -2.563988           -0.647803
 C           11.395351           -2.040424           -0.881121
 C           11.012242           -0.817192           -0.312429
 C            9.710337           -0.266283           -0.544006
 C            9.333722            0.933519            0.016182
 C            8.011092            1.494239           -0.201708
 C            7.644069            2.674901            0.365772
 C            6.280702            3.214416            0.168061
 C            6.120532            4.539780           -0.407381
 C            4.885863            5.043926           -0.644488
 C            3.683038            4.286576           -0.325078
 C            2.419466            4.777595           -0.568166
 C            1.249894            4.013825           -0.245811
 C           -0.044544            4.503890           -0.482361
 C           -1.179871            3.744964           -0.156615
 C           -2.507300            4.235194           -0.384472
 C           -3.612794            3.483723           -0.054629
 C           -4.968557            3.968272           -0.274398
 C           -6.045312            3.214613            0.049656
 C           -5.877539            1.890690            0.628985
 C           -7.091014            1.102299            0.938118
 C           -8.010692            0.816271           -0.021691
 C           -9.192193            0.025335            0.281402
 C          -10.129172           -0.274838           -0.681521
 C          -11.288915           -1.057338           -0.371325
 C          -12.245649           -1.362383           -1.350005
 C          -13.377140           -2.130128           -1.026157
 N          -14.302769           -2.407889           -2.031538
 C          -15.378421           -3.134468           -1.735273
 C          -16.344501           -3.421675           -2.794636
 C          -17.450109           -4.156017           -2.533616
 C          -17.707142           -4.676500           -1.203936
 C          -16.846289           -4.441611           -0.184609
 C          -15.638834           -3.660462           -0.393358
 C          -14.729891           -3.390152            0.602705
 C          -13.559574           -2.611555            0.323028
 C          -12.598664           -2.303794            1.295766
 C          -11.467181           -1.535850            0.975584
 C          -10.478226           -1.211764            1.961040
 C           -9.372792           -0.456100            1.641768
 C           -8.360444           -0.114330            2.631526
 C           -7.275995            0.624922            2.300126
 C           -4.632965            1.395630            0.863308
 C           -3.444151            2.164062            0.532128
 C           -2.178024            1.671634            0.756316
 C           -1.014504            2.438678            0.424926
 C            0.278242            1.946039            0.657411
 C            1.412376            2.708304            0.338001
 C            2.734530            2.216243            0.581711
 C            3.843826            2.968626            0.266637
 C            5.189326            2.472546            0.498231
 C            8.581148            3.413320            1.196965
 C            9.824356            2.929876            1.431153
 C           10.266280            1.665360            0.858335
 C           11.522738            1.153385            1.093583
 C           11.937747           -0.093831            0.521337
 C           13.218861           -0.621711            0.753555
 C           13.610550           -1.841641            0.185263
 C           14.907181           -2.417911            0.389292
 C           15.234730           -3.618281           -0.196582
 C           16.528022           -4.261439           -0.036301
 H           17.760864           -5.937107           -0.526562
 H           16.076758           -7.056537           -1.919958
 H           13.808031           -6.035061           -2.264284
 H           10.702225           -2.600211           -1.512762
 H            9.021582           -0.824869           -1.178536
 H            7.324748            0.933049           -0.836954
 H            7.023756            5.100367           -0.646577
 H            4.753067            6.032176           -1.085123
 H            2.283572            5.762440           -1.014480
 H           -0.170216            5.491506           -0.925401
 H           -2.621532            5.224189           -0.827650
 H           -5.081841            4.961345           -0.709545
 H           -7.062932            3.572888           -0.104928
 H           -7.885746            1.162094           -1.048365
 H          -10.007008            0.078084           -1.706029
 H          -12.123271           -1.007381           -2.375602
 H          -16.123912           -3.017192           -3.784239
 H          -18.180469           -4.379325           -3.311663
 H          -18.615482           -5.260108           -1.060773
 H          -17.028442           -4.827193            0.818101
 H          -14.880245           -3.759978            1.617317
 H          -12.731154           -2.665249            2.315761
 H          -10.623138           -1.580272            2.976452
 H           -8.511299           -0.476240            3.648644
 H           -6.516313            0.889928            3.035563
 H           -4.489000            0.405339            1.295805
 H           -2.035329            0.683092            1.192472
 H            0.404153            0.955548            1.094141
 H            2.842482            1.226037            1.024035
 H            5.291571            1.483655            0.946022
 H            8.240929            4.354753            1.627861
 H           10.533322            3.470712            2.058204
 H           12.230286            1.690725            1.724925
 H           13.918845           -0.073442            1.384576
 H           15.622452           -1.884042            1.015617
 H           17.267580           -3.755389            0.583630

