102

 C           18.353467           -0.852755            4.103677
 C           18.513434           -2.147595            3.468526
 C           17.549645           -2.657741            2.668290
 C           16.316640           -1.910207            2.424309
 N           15.391214           -2.445032            1.630545
 C           14.213146           -1.737068            1.393576
 C           13.242190           -2.310204            0.554410
 C           12.043301           -1.632849            0.287569
 C           11.039205           -2.196161           -0.566507
 C            9.865672           -1.525919           -0.826953
 C            8.836569           -2.080705           -1.695406
 C            7.685341           -1.411082           -1.936811
 C            7.441375           -0.109751           -1.332933
 C            6.155309            0.564109           -1.618636
 C            6.187510            1.905836           -2.180188
 C            5.038630            2.570684           -2.446370
 C            3.738550            1.970448           -2.180728
 C            2.561045            2.634995           -2.440902
 C            1.290509            2.025768           -2.179005
 C            0.083180            2.691658           -2.443554
 C           -1.154486            2.080973           -2.186951
 C           -2.394538            2.746822           -2.457457
 C           -3.602418            2.136236           -2.205109
 C           -4.872048            2.794257           -2.481010
 C           -6.051541            2.182245           -2.222752
 C           -6.084501            0.841539           -1.658315
 C           -7.402713            0.229616           -1.380194
 C           -8.322774            0.852200           -0.595696
 C           -9.610848            0.239706           -0.315708
 C          -10.551412            0.861147            0.475187
 C          -11.818230            0.249107            0.742970
 C          -12.780927            0.883288            1.545300
 C          -14.018210            0.277952            1.799368
 C          -15.029893            0.889056            2.610038
 C          -16.227123            0.248310            2.824558
 C          -17.297820            0.806228            3.633105
 C          -18.458293            0.130577            3.810783
 C          -18.666547           -1.169041            3.199933
 C          -17.710053           -1.744091            2.435719
 C          -16.435840           -1.063633            2.207195
 N          -15.518722           -1.661198            1.449209
 C          -14.301744           -1.016985            1.226890
 C          -13.340061           -1.655246            0.424730
 C          -12.103594           -1.042527            0.173085
 C          -11.108743           -1.671693           -0.645214
 C           -9.899201           -1.063354           -0.892884
 C           -8.879942           -1.683623           -1.728083
 C           -7.695222           -1.071964           -1.961476
 C           -4.926428            0.180816           -1.390049
 C           -3.633587            0.792906           -1.649564
 C           -2.453760            0.134914           -1.381831
 C           -1.185857            0.749647           -1.640199
 C            0.020675            0.084301           -1.373446
 C            1.257886            0.694430           -1.632495
 C            2.494763            0.022813           -1.366457
 C            3.704927            0.626778           -1.626370
 C            4.966711           -0.043878           -1.359636
 C            8.374126            0.455221           -0.520504
 C            9.626417           -0.222551           -0.228218
 C           10.577321            0.337023            0.595877
 C           11.806663           -0.341074            0.879147
 C           12.778792            0.228337            1.717990
 C           13.978450           -0.442332            1.988309
 C           14.997849            0.100512            2.837155
 C           16.156392           -0.603291            3.066403
 C           17.232204           -0.116904            3.913507
 H           19.166854           -0.499068            4.735947
 H           19.438167           -2.692269            3.660920
 H           17.641408           -3.628407            2.177006
 H           13.437710           -3.290600            0.114403
 H           11.230694           -3.175220           -1.006722
 H            9.031077           -3.055407           -2.143415
 H            6.913190           -1.817741           -2.589731
 H            7.163700            2.346354           -2.382229
 H            5.049845            3.575203           -2.869794
 H            2.573312            3.643313           -2.854650
 H            0.107301            3.699876           -2.856811
 H           -2.358462            3.754426           -2.871549
 H           -4.834765            3.797585           -2.905745
 H           -7.005246            2.665732           -2.433764
 H           -8.119962            1.824166           -0.145809
 H          -10.347787            1.837443            0.914815
 H          -12.561131            1.860410            1.975707
 H          -14.827058            1.866792            3.048406
 H          -17.128402            1.782731            4.086207
 H          -19.268371            0.538020            4.414249
 H          -19.621800           -1.662828            3.380153
 H          -17.838040           -2.719935            1.963210
 H          -13.572623           -2.634661            0.000934
 H          -11.337114           -2.649902           -1.069347
 H           -9.110195           -2.658303           -2.158796
 H           -6.931206           -1.527417           -2.591412
 H           -4.931769           -0.822857           -0.964233
 H           -2.461468           -0.872514           -0.965908
 H           -0.003330           -0.923315           -0.958337
 H            2.454333           -0.984044           -0.951049
 H            4.923868           -1.047734           -0.936333
 H            8.207800            1.427092           -0.055827
 H           10.410469            1.312959            1.051435
 H           12.595905            1.205758            2.164605
 H           14.831984            1.077426            3.292511
 H           17.099382            0.856639            4.384800

