92

 C            8.810726            5.338857            4.856460
 C            9.554477            4.223645            4.956682
 C            9.124809            3.136431            4.071059
 C            9.664190            1.890595            3.934227
 C            9.085830            0.960422            2.993656
 C            7.946639            1.353378            2.210587
 C            7.393484            2.678934            2.376965
 C            7.972843            3.515681            3.271768
 S            7.510818            5.165750            3.669223
 C            7.390062            0.444524            1.299274
 C            7.920608           -0.843706            1.136965
 C            9.061949           -1.236633            1.918445
 C            9.618644           -0.326194            2.829709
 C            9.622695           -2.557720            1.766023
 C            9.066713           -3.429535            0.876472
 C            9.470377           -4.806945            0.574945
 C            8.707168           -5.410520           -0.352682
 S            7.421469           -4.350908           -0.947470
 C            7.915528           -3.024643            0.093677
 C            7.343731           -1.794825            0.203295
 C            6.148381           -1.436166           -0.591723
 C            6.344913           -0.837073           -1.901559
 C            5.281833           -0.514190           -2.675435
 C            3.917134           -0.752078           -2.224647
 C            2.824425           -0.436221           -3.000785
 C            1.489038           -0.677344           -2.538358
 C            0.365461           -0.355347           -3.316275
 C           -0.936231           -0.593619           -2.846535
 C           -2.094003           -0.264322           -3.624912
 C           -3.365003           -0.496502           -3.148276
 C           -4.554307           -0.164209           -3.920970
 C           -5.796732           -0.398152           -3.436075
 C           -5.974992           -0.994078           -2.122312
 C           -7.353030           -1.237039           -1.641151
 C           -8.018088           -2.382302           -1.952397
 S           -7.451390           -3.721637           -2.938104
 C           -8.949424           -4.635037           -2.711876
 C           -9.831624           -3.975416           -1.941165
 C           -9.355190           -2.670342           -1.470906
 C           -9.997895           -1.770604           -0.672112
 C           -9.342390           -0.535418           -0.314541
 C           -9.984601            0.401525            0.509448
 C           -9.361708            1.605360            0.869187
 C           -8.039715            1.884952            0.379962
 C           -7.393089            3.124923            0.747479
 C           -8.060224            3.991255            1.547853
 S           -7.516313            5.554573            2.143050
 C           -9.020810            5.840920            3.028280
 C           -9.888614            4.823573            2.891350
 C           -9.396723            3.726482            2.051313
 C          -10.028010            2.563158            1.719702
 C           -7.397861            0.949788           -0.444380
 C           -8.017720           -0.257175           -0.799468
 C           -4.900888           -1.321550           -1.357500
 C           -3.547237           -1.090466           -1.833825
 C           -2.449710           -1.420295           -1.071163
 C           -1.119999           -1.183287           -1.546408
 C            0.001952           -1.510364           -0.770112
 C            1.301557           -1.265886           -1.238171
 C            2.451265           -1.588147           -0.447627
 C            3.724292           -1.344039           -0.910703
 C            4.897397           -1.671077           -0.117017
 H            8.913801            6.270695            5.388783
 H           10.403972            4.089434            5.615176
 H           10.525920            1.573415            4.518425
 H            6.528659            2.965227            1.779980
 H            6.524549            0.746170            0.704020
 H           10.482841           -0.625676            3.422977
 H           10.483952           -2.833273            2.371711
 H           10.315243           -5.251710            1.085678
 H            8.787132           -6.410339           -0.748345
 H            7.369787           -0.665840           -2.230370
 H            5.414029           -0.068393           -3.661334
 H            2.955049            0.005134           -3.988691
 H            0.505908            0.088363           -4.301781
 H           -1.943503            0.177394           -4.609827
 H           -4.405364            0.279126           -4.905596
 H           -6.692868           -0.154460           -4.006510
 H           -9.048701           -5.602537           -3.177326
 H          -10.815336           -4.330159           -1.660272
 H          -10.999473           -1.960424           -0.290924
 H          -10.988175            0.188889            0.878256
 H           -6.390677            3.325410            0.371538
 H           -9.134796            6.756929            3.585277
 H          -10.873438            4.770443            3.339087
 H          -11.028619            2.332838            2.080397
 H           -6.393464            1.166505           -0.816974
 H           -5.021681           -1.768796           -0.370165
 H           -2.572151           -1.869976           -0.085693
 H           -0.138544           -1.961145            0.212409
 H            2.292587           -2.034505            0.534187
 H            4.736677           -2.116656            0.865390

