92

 C           18.096336           -0.423830            4.433343
 C           17.509901           -1.015311            3.378243
 C           16.144575           -0.549778            3.113221
 C           15.288159           -0.946685            2.127678
 C           13.973076           -0.356714            2.041344
 C           13.070015           -0.745698            1.040706
 C           11.790193           -0.177479            0.953440
 C           11.399376            0.825515            1.906450
 C           12.300965            1.215762            2.906826
 C           13.578730            0.644690            2.994410
 C           14.505464            1.047294            4.028476
 C           15.727167            0.462786            4.066946
 S           17.033846            0.761271            5.205667
 C           10.082004            1.415098            1.818842
 C            9.249507            0.997474            0.835008
 S            7.611124            1.544157            0.504716
 C            7.430336            0.439369           -0.877333
 C            6.162329            0.459536           -1.590957
 C            6.197781            0.554687           -3.044256
 C            5.050797            0.580003           -3.761732
 C            3.749392            0.513645           -3.111703
 C            2.574544            0.537679           -3.828591
 C            1.302576            0.470535           -3.171856
 C            0.099728            0.483541           -3.894729
 C           -1.140291            0.411229           -3.240949
 C           -2.374653            0.417816           -3.968559
 C           -3.585775            0.336294           -3.319142
 C           -4.849984            0.341473           -4.041654
 C           -6.033235            0.261154           -3.389958
 C           -6.075398            0.165962           -1.936897
 C           -7.379041            0.086507           -1.295313
 C           -8.448958           -0.687587           -1.569001
 C           -9.589187           -0.466438           -0.678472
 C          -10.805287           -1.086469           -0.690842
 C          -11.803380           -0.726485            0.288206
 C          -11.507092            0.282224            1.268970
 C          -12.477179            0.624865            2.221402
 C          -13.732995            0.000878            2.234498
 C          -14.730569            0.354735            3.219182
 C          -15.927107           -0.280027            3.186432
 S          -17.305207           -0.046744            4.253896
 C          -18.273046           -1.268056            3.416634
 C          -17.605782           -1.824774            2.390989
 C          -16.249018           -1.299977            2.204140
 C          -15.324537           -1.651401            1.263764
 C          -14.032708           -1.006405            1.253739
 C          -13.061159           -1.347770            0.300843
 C          -10.212714            0.926768            1.257908
 C           -9.311240            0.553342            0.318084
 S           -7.681822            1.170880            0.081831
 C           -4.920456            0.155387           -1.214846
 C           -3.625503            0.243626           -1.869103
 C           -2.450496            0.243156           -1.149597
 C           -1.179128            0.325570           -1.804683
 C            0.024103            0.319445           -1.081243
 C            1.264288            0.384980           -1.735487
 C            2.499353            0.363405           -1.009480
 C            3.711555            0.421280           -1.661494
 C            4.970413            0.394025           -0.935164
 C            8.544679           -0.291295           -1.085050
 C            9.623808           -0.016734           -0.135186
 C           10.863194           -0.585938           -0.075067
 H           19.083532           -0.582486            4.836325
 H           17.960204           -1.772447            2.748147
 H           15.569255           -1.703080            1.397297
 H           13.368160           -1.504973            0.317167
 H           12.003789            1.976100            3.629761
 H           14.195360            1.806116            4.744981
 H            9.798026            2.175514            2.544909
 H            7.174802            0.610965           -3.523876
 H            5.064110            0.652535           -4.849411
 H            2.588214            0.608695           -4.916105
 H            0.128851            0.548625           -4.982363
 H           -2.330346            0.489604           -5.055215
 H           -4.805397            0.414477           -5.128469
 H           -6.983171            0.271828           -3.923996
 H           -8.500568           -1.427867           -2.357563
 H          -11.046565           -1.853345           -1.424586
 H          -12.251761            1.389522            2.965462
 H          -14.491932            1.118835            3.957179
 H          -19.273168           -1.471473            3.763750
 H          -17.988914           -2.594161            1.732039
 H          -15.533654           -2.411686            0.513585
 H          -13.287749           -2.111324           -0.443790
 H          -10.000779            1.691373            2.003915
 H           -4.926732            0.074049           -0.126143
 H           -2.465843            0.178433           -0.061275
 H           -0.005361            0.261031            0.006941
 H            2.456190            0.298262            0.078059
 H            4.919294            0.312209            0.152316
 H            8.670292           -1.033844           -1.863101
 H           11.175694           -1.347532           -0.787132

