92

 C          -10.633636            4.935080           -3.253638
 C           -9.582956            4.101986           -3.160573
 C           -9.583146            3.269948           -1.952833
 C           -8.666373            2.336369           -1.565098
 C           -8.854318            1.619799           -0.325992
 C           -7.926757            0.657248            0.099731
 C           -8.100166           -0.045682            1.301674
 C           -9.258432            0.227324            2.108763
 C          -10.185507            1.191519            1.686448
 C          -10.007564            1.894304            0.486660
 C          -10.963407            2.889039            0.053652
 C          -10.740207            3.535334           -1.116159
 S          -11.727605            4.779613           -1.871823
 C           -9.457139           -0.492308            3.346253
 C           -8.536370           -1.414946            3.714662
 S           -8.533654           -2.421785            5.157410
 C           -7.006715           -3.200346            4.719481
 C           -6.522131           -2.736649            3.554929
 C           -7.355966           -1.707109            2.925251
 C           -7.139685           -1.036826            1.748888
 C           -5.927288           -1.310221            0.943877
 C           -5.997390           -2.350503           -0.069140
 C           -4.905749           -2.666082           -0.805015
 C           -3.634247           -1.984233           -0.602933
 C           -2.507686           -2.313309           -1.322518
 C           -1.262452           -1.638111           -1.103343
 C           -0.104404           -1.972187           -1.822800
 C            1.109610           -1.305054           -1.594162
 C            2.299151           -1.632925           -2.323037
 C            3.481999           -0.965779           -2.095996
 C            4.698620           -1.279533           -2.833145
 C            5.847975           -0.597974           -2.615421
 C            5.896539            0.467944           -1.627993
 C            7.170736            1.202961           -1.458055
 C            7.431691            2.322044           -2.205872
 C            6.591842            2.950060           -3.231483
 C            7.130599            4.049255           -3.785980
 S            8.720626            4.421870           -3.105711
 C            8.676023            3.041505           -2.015812
 C            9.615102            2.661392           -1.116622
 C            9.369657            1.483093           -0.316533
 C            8.147484            0.745407           -0.487628
 C            7.928840           -0.400644            0.291920
 C            8.872189           -0.835872            1.234634
 C            8.637191           -2.017214            2.030504
 C            9.570459           -2.414913            2.943319
 C            9.530577           -3.572024            3.843570
 C           10.611865           -3.690867            4.633126
 S           11.785536           -2.397599            4.349415
 C           10.791795           -1.646326            3.107552
 C           11.060989           -0.533029            2.383632
 C           10.089238           -0.091303            1.408355
 C           10.312756            1.051456            0.627868
 C            4.796144            0.789897           -0.899294
 C            3.537182            0.091025           -1.098949
 C            2.408696            0.415760           -0.380299
 C            1.166933           -0.261315           -0.604702
 C            0.009117            0.074059            0.113730
 C           -1.203774           -0.592770           -0.115513
 C           -2.389293           -0.261866            0.616938
 C           -3.571819           -0.931710            0.398386
 C           -4.772978           -0.626789            1.158490
 H          -10.868850            5.644156           -4.030900
 H           -8.781834            4.013712           -3.884298
 H           -7.788332            2.114027           -2.169244
 H           -7.049854            0.452056           -0.519594
 H          -11.060622            1.397931            2.303291
 H          -11.832276            3.089283            0.678389
 H          -10.338777           -0.271613            3.945857
 H           -6.591781           -3.948373            5.375351
 H           -5.602229           -3.058173            3.077613
 H           -6.952105           -2.858689           -0.206007
 H           -4.942955           -3.442698           -1.568963
 H           -2.539919           -3.101257           -2.074785
 H           -0.148154           -2.763055           -2.571356
 H            2.243524           -2.426007           -3.068517
 H            4.646956           -2.081986           -3.569039
 H            6.762782           -0.818923           -3.165677
 H            5.626507            2.521870           -3.480815
 H            6.724259            4.689460           -4.552047
 H           10.545156            3.209004           -0.972925
 H            7.003150           -0.967495            0.163942
 H            7.710983           -2.570322            1.883669
 H            8.679903           -4.242512            3.833468
 H           10.829307           -4.442199            5.375073
 H           11.978042            0.040507            2.507930
 H           11.236494            1.616185            0.757350
 H            4.822813            1.584416           -0.152600
 H            2.438675            1.201400            0.374943
 H            0.053028            0.865280            0.862313
 H           -2.331398            0.534594            1.359111
 H           -4.711143            0.160034            1.911218

