92

 C           11.517421           -0.664383            4.677740
 C           11.900781           -1.274363            3.542802
 C           10.963812           -1.106187            2.427079
 C           11.060892           -1.594193            1.156550
 C           10.019405           -1.307154            0.198767
 C           10.092211           -1.793326           -1.114480
 C            9.084872           -1.518454           -2.051854
 C            7.953534           -0.722829           -1.658446
 C            7.882076           -0.235598           -0.345083
 C            8.888917           -0.511178            0.591253
 C            8.809751           -0.008633            1.944779
 C            9.813154           -0.304820            2.806041
 S            9.970897            0.173970            4.491281
 C            6.911103           -0.448484           -2.631902
 C            5.719357            0.341285           -2.250136
 C            5.759948            1.782559           -2.435247
 C            4.687561            2.545936           -2.118007
 C            3.469495            1.954255           -1.581267
 C            2.368915            2.715030           -1.255073
 C            1.180049            2.114256           -0.725780
 C            0.052425            2.878105           -0.383908
 C           -1.104643            2.274214            0.133552
 C           -2.263337            3.039542            0.489552
 C           -3.392347            2.433746            0.993974
 C           -4.579966            3.193424            1.360900
 C           -5.679321            2.582032            1.861794
 C           -5.699739            1.140742            2.050140
 C           -6.916198            0.525066            2.625362
 C           -7.067468            0.394102            3.971214
 S           -5.955785            0.903968            5.232714
 C           -7.005194            0.298010            6.521756
 C           -8.130995           -0.255497            6.038276
 C           -8.227827           -0.231282            4.575015
 C           -9.227391           -0.714714            3.782459
 C           -9.123034           -0.597032            2.347802
 C           -7.969145            0.026349            1.758126
 C           -7.886435            0.132539            0.361961
 C           -8.902196           -0.361532           -0.468905
 C           -8.810733           -0.253103           -1.907905
 C           -9.822242           -0.748847           -2.661031
 S           -9.967521           -0.749602           -4.414012
 C          -11.535499           -1.567426           -4.373099
 C          -11.935038           -1.830416           -3.116783
 C          -10.993756           -1.384702           -2.083985
 C          -11.103555           -1.500401           -0.728863
 C          -10.053982           -0.987833            0.119891
 C          -10.139274           -1.090819            1.515728
 C           -4.623906            0.381950            1.715125
 C           -3.419898            0.991254            1.174420
 C           -2.318429            0.236316            0.840562
 C           -1.134664            0.846495            0.314156
 C           -0.008615            0.082218           -0.026122
 C            1.147863            0.687200           -0.540945
 C            2.302261           -0.085760           -0.887602
 C            3.434729            0.513227           -1.391347
 C            4.611273           -0.262716           -1.747369
 C            7.049877           -0.948175           -3.889758
 S            5.947773           -0.767440           -5.246038
 C            6.968859           -1.738034           -6.316225
 C            8.079095           -2.174459           -5.696007
 C            8.186192           -1.752118           -4.295547
 C            9.175763           -2.029866           -3.398401
 H           12.019606           -0.632588            5.631245
 H           12.809231           -1.849439            3.411921
 H           11.908177           -2.199375            0.839927
 H           10.948733           -2.397981           -1.413455
 H            7.023966            0.371062           -0.044876
 H            7.947165            0.591351            2.231818
 H            6.675326            2.214815           -2.838989
 H            4.701654            3.627108           -2.256112
 H            2.380786            3.795743           -1.395058
 H            0.076046            3.958782           -0.522491
 H           -2.228375            4.120034            0.351720
 H           -4.548487            4.273649            1.218300
 H           -6.572251            3.141011            2.141121
 H           -6.690287            0.404768            7.547576
 H           -8.924259           -0.695468            6.629702
 H          -10.108645           -1.193607            4.204972
 H           -7.012249            0.609861           -0.088009
 H           -7.932790            0.222351           -2.343346
 H          -12.036507           -1.787494           -5.301989
 H          -12.858540           -2.323433           -2.839005
 H          -11.966978           -1.972046           -0.263652
 H          -11.012782           -1.564934            1.963864
 H           -4.628336           -0.700458            1.848352
 H           -2.325129           -0.845753            0.972781
 H           -0.032298           -0.998780            0.111915
 H            2.261872           -1.165524           -0.743076
 H            4.569230           -1.342798           -1.602258
 H            6.651367           -1.906590           -7.332860
 H            8.853618           -2.786089           -6.141694
 H           10.038908           -2.634086           -3.671091

