86

 C           -7.859209           -1.926675            4.493438
 C           -8.960635           -1.960438            3.710279
 C           -9.013493           -1.227558            2.448979
 C          -10.122416           -1.263338            1.649291
 C          -10.185091           -0.534413            0.403176
 C          -11.310479           -0.576910           -0.400881
 C          -11.346377            0.152418           -1.618623
 C          -12.379221            0.228444           -2.551380
 S          -11.923633            1.232586           -3.833322
 C          -10.387554            1.600608           -3.229490
 C          -10.187846            0.949485           -2.013031
 C           -9.043463            0.977548           -1.172449
 C           -9.027893            0.255473            0.008369
 C           -7.871434            0.262270            0.876318
 C           -7.844729           -0.442377            2.048060
 C           -6.679915           -0.456283            2.939732
 C           -5.472745            0.311516            2.551156
 C           -5.421507            1.724128            2.892177
 C           -4.328572            2.464282            2.590986
 C           -3.175925            1.874337            1.923527
 C           -2.045102            2.605815            1.636719
 C           -0.916044            2.005797            0.988909
 C            0.249431            2.735902            0.706225
 C            1.347797            2.133645            0.072212
 C            2.544757            2.865176           -0.222256
 C            3.611495            2.265165           -0.853086
 C            4.832163            2.994993           -1.168612
 C            5.865178            2.395112           -1.805603
 C            5.783549            0.994632           -2.187817
 C            6.939789            0.397852           -2.897901
 C            7.093122            0.589280           -4.232763
 C            8.204754           -0.005384           -4.948067
 C            9.113374           -0.769773           -4.301725
 C            9.012693           -1.011612           -2.865717
 C            9.929883           -1.782340           -2.205562
 C            9.844269           -2.014742           -0.781950
 C           10.775843           -2.795967           -0.120756
 C           10.670963           -3.000866            1.280328
 C           11.504607           -3.748325            2.110610
 S           10.947093           -3.671618            3.705033
 C            9.618719           -2.677981            3.378259
 C            9.573701           -2.379403            2.017109
 C            8.627859           -1.584241            1.317584
 C            8.747174           -1.399974           -0.049160
 C            7.792747           -0.599825           -0.783139
 C            7.900257           -0.405065           -2.132561
 C            4.673046            0.264123           -1.907317
 C            3.534702            0.862884           -1.229752
 C            2.397989            0.138903           -0.948736
 C            1.275719            0.744177           -0.296485
 C            0.111859            0.013691           -0.013199
 C           -0.983966            0.615139            0.624045
 C           -2.170897           -0.126256            0.928393
 C           -3.237846            0.466517            1.565219
 C           -4.434491           -0.284159            1.909236
 C           -6.692836           -1.161743            4.099070
 H           -7.808758           -2.468527            5.436910
 H           -9.844340           -2.532212            3.990877
 H          -10.997029           -1.848207            1.933865
 H          -12.181444           -1.165022           -0.118542
 H          -13.331783           -0.266403           -2.491393
 H           -9.689545            2.244594           -3.734168
 H           -8.185027            1.573963           -1.477112
 H           -7.010455            0.854319            0.557302
 H           -6.288610            2.153538            3.394136
 H           -4.274661            3.523593            2.841240
 H           -1.984959            3.661066            1.902120
 H            0.302677            3.788180            0.984561
 H            2.589261            3.915533            0.064730
 H            4.879519            4.043134           -0.873915
 H            6.782225            2.931733           -2.048827
 H            6.384068            1.186073           -4.806024
 H            8.272156            0.184785           -6.018436
 H            9.950165           -1.229376           -4.826300
 H           10.759103           -2.244338           -2.741192
 H           11.599452           -3.263345           -0.656795
 H           12.376529           -4.300813            1.810090
 H            8.927767           -2.342378            4.131033
 H            7.812910           -1.127087            1.876526
 H            6.973684           -0.153118           -0.214537
 H            4.601153           -0.787686           -2.185663
 H            2.328950           -0.914100           -1.221518
 H            0.058265           -1.038529           -0.292136
 H           -2.207424           -1.178559            0.646896
 H           -4.464666           -1.340208            1.640036
 H           -5.830295           -1.175437            4.765137

