86

 C            9.237652           -1.825321           -3.359092
 C            9.874803           -0.825178           -2.709552
 C            9.294367           -0.202340           -1.522682
 C            9.930865            0.811766           -0.863222
 C            9.357190            1.434124            0.307148
 C           10.018072            2.460548            0.960045
 C            9.444965            3.065909            2.108504
 C            9.951691            4.104220            2.888283
 S            8.877909            4.452953            4.147170
 C            7.731703            3.283031            3.728919
 C            8.154353            2.589519            2.595562
 C            7.495153            1.535591            1.909694
 C            8.066642            0.961309            0.787153
 C            7.415091           -0.113486            0.055695
 C            6.086888           -0.573903            0.528973
 C            6.042760           -1.643840            1.513163
 C            4.856171           -2.122291            1.955702
 C            3.593308           -1.584046            1.467718
 C            2.377373           -2.065469            1.899166
 C            1.145068           -1.524388            1.405160
 C           -0.102020           -2.007683            1.832949
 C           -1.299750           -1.467850            1.337100
 C           -2.581264           -1.948954            1.763230
 C           -3.747853           -1.408745            1.269615
 C           -5.059316           -1.883714            1.690434
 C           -6.196338           -1.336893            1.199653
 C           -6.136561           -0.250735            0.234244
 C           -7.414772            0.325967           -0.249151
 C           -8.003320            1.375535            0.415609
 C           -7.430079            1.958385            1.626256
 C           -8.022351            2.996921            2.258036
 C           -9.255298            3.570741            1.749890
 C           -9.838059            3.073138            0.636002
 C           -9.248776            1.951373           -0.090518
 C           -9.830067            1.446068           -1.219601
 C           -9.248612            0.339170           -1.942784
 C           -9.853522           -0.157918           -3.084299
 C           -9.274674           -1.247115           -3.786270
 C           -9.729591           -1.875380           -4.944151
 S           -8.674489           -3.126277           -5.370795
 C           -7.602693           -2.897817           -4.083384
 C           -8.037992           -1.839620           -3.286795
 C           -7.434749           -1.311919           -2.114674
 C           -8.010520           -0.244704           -1.446965
 C           -4.940044            0.224094           -0.199899
 C           -3.691096           -0.329647            0.296550
 C           -2.471493            0.146936           -0.128057
 C           -1.246555           -0.400104            0.373151
 C           -0.001155            0.083684           -0.054898
 C            1.194834           -0.456564            0.441109
 C            2.469689            0.030308            0.006805
 C            3.640508           -0.505903            0.493100
 C            4.939350           -0.027195            0.049567
 C            7.997339           -0.685586           -1.050602
 C            7.367786           -1.773387           -1.794875
 C            7.954099           -2.312814           -2.887488
 H            9.658941           -2.294012           -4.246941
 H           10.839349           -0.448203           -3.047485
 H           10.896115            1.183163           -1.206856
 H           10.982780            2.820011            0.607433
 H           10.880285            4.623952            2.735763
 H            6.818787            3.120705            4.274047
 H            6.530906            1.194431            2.289057
 H            6.994752           -2.037289            1.869999
 H            4.807727           -2.926402            2.689670
 H            2.328221           -2.873740            2.628594
 H           -0.141038           -2.816617            2.562380
 H           -2.610095           -2.758372            2.492476
 H           -5.088698           -2.696219            2.416109
 H           -7.183877           -1.683169            1.504995
 H           -6.503414            1.520564            2.002084
 H           -7.598966            3.434016            3.161001
 H           -9.684166            4.408402            2.297522
 H          -10.764032            3.489567            0.241278
 H          -10.755912            1.868859           -1.609202
 H          -10.778622            0.273161           -3.461882
 H          -10.612990           -1.624532           -5.502962
 H           -6.722074           -3.495375           -3.927302
 H           -6.510128           -1.768171           -1.758273
 H           -4.882163            1.033938           -0.927826
 H           -2.414629            0.955065           -0.857364
 H            0.037878            0.892143           -0.785070
 H            2.490826            0.838917           -0.723875
 H            4.959333            0.779704           -0.683648
 H            6.403455           -2.135054           -1.433028
 H            7.488429           -3.123843           -3.444996

