84

 C           11.443820           -2.536204           -2.045801
 C           10.166843           -2.129391           -2.438667
 C            9.454113           -1.195100           -1.670541
 C           10.045004           -0.666640           -0.489610
 C           11.345871           -1.088671           -0.097934
 C           12.032962           -2.024844           -0.887490
 C           11.924088           -0.535993            1.115540
 C           11.249030            0.365556            1.867885
 C            9.919687            0.816905            1.493203
 C            9.210257            1.750533            2.265764
 C            7.932138            2.154991            1.884962
 C            7.328490            1.638595            0.729105
 C            5.953558            2.077789            0.393265
 C            5.786667            3.329884           -0.326807
 C            4.549548            3.788856           -0.630567
 C            3.353329            3.047210           -0.254820
 C            2.087792            3.498195           -0.557310
 C            0.922969            2.752020           -0.181859
 C           -0.372767            3.196905           -0.489849
 C           -1.503413            2.451555           -0.119247
 C           -2.832781            2.889378           -0.429239
 C           -3.932987            2.145128           -0.066120
 C           -5.291757            2.571211           -0.373833
 C           -6.362307            1.825699           -0.011285
 C           -6.181639            0.574902            0.707857
 C           -7.388317           -0.181997            1.116983
 C           -7.937467            0.071539            2.382535
 C           -9.054710           -0.630310            2.831002
 C           -9.653041           -1.606970            2.018803
 C          -10.812389           -2.363675            2.459862
 C          -11.381857           -3.303417            1.668122
 C          -10.856207           -3.593096            0.344529
 C          -11.436385           -4.563930           -0.487721
 C          -10.901896           -4.816819           -1.752834
 C           -9.785387           -4.114219           -2.211571
 C           -9.182346           -3.137639           -1.403044
 C           -9.720013           -2.870045           -0.113810
 C           -9.111129           -1.867012            0.730165
 C           -7.970605           -1.148250            0.272711
 C           -7.447568           -1.446895           -1.050377
 C           -8.018569           -2.386108           -1.841461
 C           -4.936216            0.128136            1.015469
 C           -3.754656            0.890299            0.646370
 C           -2.487452            0.453357            0.959933
 C           -1.329963            1.211342            0.590408
 C           -0.036009            0.768473            0.902805
 C            1.093474            1.512018            0.528785
 C            2.417907            1.062314            0.835731
 C            3.522862            1.792570            0.459976
 C            4.871834            1.343699            0.762871
 C            8.017856            0.709238           -0.075413
 C            9.323054            0.294443            0.312983
 C            7.446101            0.151948           -1.290182
 C            8.123051           -0.747322           -2.043172
 H           11.986655           -3.262461           -2.650467
 H            9.721692           -2.538989           -3.343891
 H           13.028669           -2.354640           -0.595358
 H           12.920548           -0.876189            1.397241
 H           11.681097            0.779579            2.779110
 H            9.659547            2.157968            3.170489
 H            7.388640            2.877830            2.495083
 H            6.688492            3.873169           -0.608633
 H            4.407878            4.727581           -1.165862
 H            1.945583            4.436845           -1.092353
 H           -0.502916            4.136096           -1.027491
 H           -2.951088            3.831762           -0.963537
 H           -5.411005            3.514347           -0.906868
 H           -7.382810            2.131681           -0.241222
 H           -7.478682            0.825947            3.023337
 H           -9.463557           -0.422402            3.818890
 H          -11.204985           -2.146348            3.453346
 H          -12.250919           -3.872026            1.998921
 H          -12.306205           -5.122455           -0.145676
 H          -11.361086           -5.572358           -2.390007
 H           -9.380524           -4.325080           -3.200018
 H           -6.572879           -0.883977           -1.383054
 H           -7.622165           -2.608688           -2.832148
 H           -4.786735           -0.811171            1.548330
 H           -2.340166           -0.483252            1.497589
 H            0.094029           -0.169024            1.443292
 H            2.530907            0.122534            1.376165
 H            4.983419            0.400465            1.298207
 H            6.446257            0.487096           -1.574204
 H            7.690134           -1.163779           -2.952667

