116

 C          -16.109488           -1.791944           -3.854875
 C          -15.747288           -2.032834           -2.573519
 C          -14.457335           -1.586769           -2.057771
 C          -14.073147           -1.820529           -0.762631
 C          -12.797219           -1.372180           -0.265192
 C          -12.400801           -1.603973            1.047330
 C          -11.143234           -1.155941            1.525993
 C          -10.731175           -1.383905            2.862574
 C           -9.495780           -0.938238            3.322167
 C           -9.067491           -1.155597            4.679362
 C           -7.848720           -0.712418            5.126239
 C           -7.421195           -0.923269            6.504407
 C           -6.216744           -0.484310            6.936808
 C           -5.312370            0.202293            6.038102
 C           -5.652051            0.426716            4.742359
 C           -4.700674            1.115304            3.837027
 C           -4.744121            2.567421            3.774792
 C           -3.870642            3.248705            2.996329
 C           -2.863810            2.555891            2.203921
 C           -1.952947            3.234807            1.425623
 C           -0.963579            2.536017            0.659406
 C           -0.020467            3.216660           -0.127101
 C            0.943677            2.518685           -0.871378
 C            1.911827            3.199546           -1.680003
 C            2.844329            2.502825           -2.415494
 C            3.829859            3.176701           -3.250072
 C            4.726861            2.476519           -3.983557
 C            4.731492            1.022680           -3.953451
 C            5.710055            0.310349           -4.810068
 C            7.001268           -0.084337           -4.239918
 C            7.357484            0.201371           -2.946800
 C            8.630750           -0.203382           -2.407933
 C            8.997645            0.089265           -1.098159
 C           10.251741           -0.317493           -0.577838
 C           10.634754           -0.022674            0.755323
 C           11.866471           -0.427046            1.258169
 C           12.265643           -0.133863            2.611185
 C           13.482382           -0.534712            3.099454
 C           13.898466           -0.243144            4.467013
 C           15.103854           -0.645470            4.932313
 C           16.019813           -1.381492            4.080195
 C           15.688340           -1.681001            2.802963
 C           14.403788           -1.275602            2.242144
 C           14.050050           -1.569746            0.950638
 C           12.778604           -1.162101            0.408716
 C           12.412418           -1.455940           -0.900189
 C           11.158606           -1.048070           -1.422607
 C           10.776751           -1.339649           -2.755817
 C            9.544530           -0.933170           -3.258272
 C            9.146448           -1.215202           -4.612761
 C            7.930373           -0.810725           -5.101696
 C            7.533568           -1.086829           -6.477478
 C            6.331624           -0.685608           -6.951432
 C            5.399488            0.025076           -6.101109
 C            3.847336            0.344175           -3.176838
 C            2.860659            1.049375           -2.374550
 C            1.947157            0.375686           -1.595608
 C            0.964333            1.080113           -0.827733
 C            0.022880            0.399227           -0.041167
 C           -0.939830            1.097588            0.703659
 C           -1.900379            0.411423            1.514677
 C           -2.834354            1.102991            2.252853
 C           -3.796832            0.418085            3.100669
 C           -6.947635           -0.010897            4.215428
 C           -7.332378            0.212112            2.918159
 C           -8.609601           -0.233609            2.422740
 C           -9.006043           -0.004100            1.108972
 C          -10.263940           -0.450475            0.632107
 C          -10.677417           -0.219807           -0.704614
 C          -11.912910           -0.662380           -1.164168
 C          -12.343318           -0.433974           -2.520093
 C          -13.564005           -0.871435           -2.965111
 C          -14.012025           -0.644731           -4.334870
 C          -15.221279           -1.081591           -4.756748
 H          -17.070363           -2.119704           -4.248906
 H          -16.403311           -2.564992           -1.885450
 H          -14.727354           -2.353981           -0.073627
 H          -13.061100           -2.138768            1.729475
 H          -11.401413           -1.917836            3.535529
 H           -9.747116           -1.685302            5.346472
 H           -8.110089           -1.445233            7.167675
 H           -5.887151           -0.633622            7.964158
 H           -4.351428            0.526448            6.437543
 H           -5.499401            3.075820            4.373925
 H           -3.890351            4.336871            2.938283
 H           -1.964745            4.323663            1.378920
 H           -0.037270            4.305842           -0.160280
 H            1.889434            4.289046           -1.700432
 H            3.813684            4.266426           -3.261152
 H            5.466141            2.970534           -4.613875
 H            6.678161            0.746703           -2.287642
 H            8.315331            0.641467           -0.451688
 H            9.942440            0.531084            1.389143
 H           11.566215            0.419247            3.237878
 H           13.200182            0.309776            5.094419
 H           15.424101           -0.432662            5.951171
 H           16.976114           -1.679334            4.507860
 H           16.365736           -2.232415            2.151727
 H           14.725668           -2.122443            0.298435
 H           13.093861           -2.009717           -1.545409
 H           11.467733           -1.892015           -3.391908
 H            9.846723           -1.762466           -5.243342
 H            8.242912           -1.625969           -7.104462
 H            6.024905           -0.883889           -7.977560
 H            4.441937            0.316407           -6.532539
 H            3.846378           -0.745511           -3.137660
 H            1.951620           -0.713320           -1.550177
 H            0.039495           -0.690161           -0.007974
 H           -1.871133           -0.677932            1.536076
 H           -3.760940           -0.671313            3.129557
 H           -6.673830            0.737041            2.222381
 H           -8.344727            0.528610            0.425382
 H          -10.006095            0.315157           -1.376047
 H          -11.664724            0.100548           -3.184688
 H          -13.334500           -0.110655           -5.000242
 H          -15.565326           -0.916894           -5.776748

