116

 C           21.294624           -0.371370            3.568601
 C           20.227191            0.460471            3.568374
 C           18.977313            0.083346            2.917622
 C           17.885825            0.913166            2.907614
 C           16.657128            0.528972            2.261418
 C           15.545418            1.364891            2.247164
 C           14.341531            0.976055            1.607785
 C           13.202569            1.820359            1.586793
 C           12.026809            1.430017            0.954627
 C           10.863107            2.279395            0.922786
 C            9.709654            1.887023            0.294002
 C            8.525060            2.737271            0.248563
 C            7.392775            2.334500           -0.370917
 C            7.321642            1.030632           -1.017684
 C            6.049740            0.640353           -1.665499
 C            6.077615            0.270373           -3.072333
 C            4.945537           -0.111850           -3.708363
 C            3.667897           -0.167059           -3.011301
 C            2.509083           -0.560886           -3.641789
 C            1.259801           -0.605042           -2.940686
 C            0.071358           -1.002099           -3.573249
 C           -1.145647           -1.040358           -2.874334
 C           -2.366323           -1.444009           -3.507167
 C           -3.553508           -1.480437           -2.810540
 C           -4.802907           -1.891237           -3.435940
 C           -5.963623           -1.913956           -2.739607
 C           -5.995035           -1.528019           -1.337238
 C           -7.295847           -1.553229           -0.631931
 C           -7.411465           -2.369834            0.569344
 C           -8.571694           -2.418431            1.262247
 C           -9.742078           -1.657869            0.838277
 C          -10.922727           -1.690455            1.534899
 C          -12.071408           -0.936639            1.100653
 C          -13.274568           -0.965637            1.798369
 C          -14.397986           -0.221320            1.358213
 C          -15.629723           -0.245746            2.060015
 C          -16.725805            0.487952            1.618994
 C          -17.982558            0.470549            2.323118
 C          -19.058510            1.196818            1.882013
 C          -20.336456            1.187435            2.585592
 C          -21.388091            1.910572            2.135749
 C          -21.273686            2.719003            0.935743
 C          -20.113312            2.766668            0.241168
 C          -18.943741            2.009857            0.674474
 C          -17.760198            2.045546           -0.016549
 C          -16.612521            1.293277            0.422226
 C          -15.408854            1.323898           -0.273366
 C          -14.286130            0.578944            0.167800
 C          -13.056086            0.603011           -0.535648
 C          -11.959843           -0.132053           -0.096503
 C          -10.706285           -0.115804           -0.805155
 C           -9.629433           -0.844607           -0.368685
 C           -8.357229           -0.831857           -1.076975
 C           -4.853860           -1.145817           -0.703858
 C           -3.582334           -1.101624           -1.407151
 C           -2.420547           -0.709456           -0.779871
 C           -1.174526           -0.666111           -1.484822
 C            0.013542           -0.268449           -0.852061
 C            1.229599           -0.230133           -1.551278
 C            2.447476            0.174361           -0.914702
 C            3.637127            0.210329           -1.607462
 C            4.880338            0.614832           -0.971636
 C            8.397072            0.200774           -1.010711
 C            9.641495            0.582673           -0.357970
 C           10.733056           -0.247518           -0.342378
 C           11.959583            0.138111            0.306755
 C           13.070850           -0.697968            0.323013
 C           14.274047           -0.308447            0.963260
 C           15.411841           -1.153595            0.983686
 C           16.588663           -0.762825            1.613591
 C           17.751317           -1.612848            1.640836
 C           18.907904           -1.220425            2.263980
 C           20.092244           -2.071433            2.299283
 C           21.225380           -1.667447            2.919141
 H           22.231878           -0.098942            4.051586
 H           20.263552            1.436121            4.051761
 H           17.921945            1.889144            3.391246
 H           15.591471            2.338832            2.733972
 H           13.261041            2.791473            2.077940
 H           10.928151            3.249149            1.416140
 H            8.590597            3.711336            0.733738
 H            6.505364            2.966066           -0.412400
 H            7.036233            0.319186           -3.589001
 H            4.953656           -0.389445           -4.762454
 H            2.520147           -0.848313           -4.692963
 H            0.093591           -1.285549           -4.625172
 H           -2.332864           -1.723173           -4.560094
 H           -4.766328           -2.180138           -4.486362
 H           -6.901781           -2.224440           -3.199564
 H           -6.534191           -2.938134            0.878263
 H           -8.670945           -3.028726            2.160048
 H          -11.021220           -2.291422            2.438834
 H          -13.366613           -1.569297            2.701003
 H          -15.709528           -0.854259            2.960531
 H          -18.052578           -0.141452            3.222126
 H          -20.406822            0.575521            3.484151
 H          -22.346082            1.910063            2.653575
 H          -22.152256            3.279985            0.620750
 H          -20.012249            3.368528           -0.661325
 H          -17.658124            2.646920           -0.919711
 H          -15.316023            1.928116           -1.175538
 H          -12.977967            1.211484           -1.436350
 H          -10.638770            0.496771           -1.703976
 H           -8.287014           -0.212970           -1.971852
 H           -4.860061           -0.851281            0.345804
 H           -2.427098           -0.422297            0.271288
 H           -0.008874            0.015317            0.199883
 H            2.409300            0.454227            0.137744
 H            4.841772            0.886312            0.083539
 H            8.359420           -0.780364           -1.484608
 H           10.698669           -1.224691           -0.823579
 H           13.026286           -1.672492           -0.162625
 H           15.352881           -2.125287            0.493928
 H           17.683155           -2.582630            1.148340
 H           20.025027           -3.041256            1.807580
 H           22.114484           -2.295325            2.951278

