92

 C           -9.477200            4.955689           -3.870164
 C          -10.036919            4.432616           -2.749671
 C           -9.403744            3.332474           -2.043177
 C           -9.957816            2.782466           -0.897959
 C           -9.323268            1.705546           -0.221961
 C           -9.881516            1.131963            0.950778
 C           -9.254199            0.081840            1.604026
 C           -9.825579           -0.508745            2.800871
 C           -9.208167           -1.539747            3.430966
 C           -7.962587           -2.066787            2.930108
 C           -7.379070           -1.543181            1.815472
 C           -6.082983           -2.085279            1.339952
 C           -6.102613           -3.244686            0.462627
 C           -4.946442           -3.804918            0.034786
 C           -3.652031           -3.267434            0.432415
 C           -2.466273           -3.829243            0.014180
 C           -1.202010           -3.283114            0.413344
 C            0.015117           -3.839824           -0.011365
 C            1.244814           -3.286698            0.381898
 C            2.496396           -3.837203           -0.048825
 C            3.694468           -3.279176            0.339072
 C            4.976385           -3.822151           -0.089655
 C            6.145069           -3.267609            0.311073
 C            6.151781           -2.108495            1.189073
 C            7.461167           -1.577827            1.640490
 C            8.053574           -0.434858            0.953416
 C            7.459489            0.167259           -0.145154
 C            8.058045            1.284692           -0.787651
 C            7.455033            1.909519           -1.912331
 C            8.047774            3.001401           -2.527745
 C            7.444532            3.652395           -3.677373
 C            8.040306            4.720202           -4.266651
 C            9.292227            5.236684           -3.761609
 C            9.895198            4.663188           -2.689188
 C            9.300044            3.517839           -2.022791
 C            9.898648            2.915850           -0.927054
 C            9.300155            1.796126           -0.289084
 C            9.904448            1.168827            0.832332
 C            9.311460            0.078025            1.449746
 C            9.931499           -0.568391            2.592374
 C            9.348546           -1.639829            3.186625
 C            8.091113           -2.154164            2.702736
 C            4.984084           -1.552426            1.605322
 C            3.702868           -2.111265            1.205104
 C            2.512467           -1.568636            1.633911
 C            1.255916           -2.131522            1.240259
 C            0.040192           -1.579038            1.671063
 C           -1.187460           -2.128217            1.272227
 C           -2.432092           -1.561907            1.698512
 C           -3.634466           -2.100161            1.299457
 C           -4.903428           -1.535890            1.730471
 C           -8.008340           -0.443651            1.091441
 C           -7.458212            0.107127           -0.056023
 C           -8.091600            1.183034           -0.734583
 C           -7.533702            1.755327           -1.909549
 C           -8.161157            2.805774           -2.561287
 C           -7.604572            3.402508           -3.762837
 C           -8.234580            4.429465           -4.387871
 H           -9.942992            5.779913           -4.408144
 H          -10.972715            4.819239           -2.348245
 H          -10.893997            3.171046           -0.498489
 H          -10.820186            1.532801            1.332520
 H          -10.762853           -0.094309            3.170147
 H           -9.627982           -1.993245            4.328031
 H           -7.501437           -2.890554            3.474507
 H           -7.075504           -3.638440            0.169353
 H           -4.947641           -4.676219           -0.619905
 H           -2.465742           -4.706116           -0.632758
 H            0.005552           -4.715240           -0.660186
 H            2.476698           -4.714658           -0.694678
 H            4.958064           -4.693047           -0.744642
 H            7.108710           -3.665767           -0.005764
 H            6.513769           -0.215323           -0.534653
 H            6.510820            1.514423           -2.286753
 H            6.500590            3.252378           -4.045410
 H            7.596694            5.215179           -5.128907
 H            9.729102            6.095339           -4.269178
 H           10.838224            5.042247           -2.297509
 H           10.842542            3.296242           -0.537909
 H           10.851209            1.561030            1.202978
 H           10.876468           -0.161970            2.950839
 H            9.805122           -2.135760            4.042359
 H            7.658189           -3.011137            3.218306
 H            4.973384           -0.677930            2.256510
 H            2.503308           -0.694958            2.285446
 H            0.050030           -0.707364            2.325174
 H           -2.403396           -0.688784            2.350228
 H           -4.873282           -0.661735            2.381422
 H           -6.521009           -0.284885           -0.456663
 H           -6.596602            1.352538           -2.293577
 H           -6.667139            2.995645           -4.139930
 H           -7.826185            4.883558           -5.289188

