104

 C           19.014046           -1.206643            2.313103
 C           18.912498            0.233609            2.437142
 C           17.759198            0.874603            2.130151
 C           16.590956            0.138384            1.667727
 C           15.410511            0.772144            1.351047
 C           14.270002            0.033431            0.897541
 C           13.062918            0.670857            0.572490
 C           11.952192           -0.063351            0.128897
 C           10.715958            0.576894           -0.206357
 C            9.631590           -0.151789           -0.641849
 C            8.371876            0.486349           -0.983898
 C            7.307106           -0.244866           -1.408513
 C            6.016961            0.399080           -1.736726
 C            6.008838            1.459676           -2.732273
 C            4.857154            2.093627           -3.054725
 C            3.595802            1.736494           -2.420582
 C            2.415920            2.371788           -2.735647
 C            1.183967            2.006135           -2.101908
 C           -0.025054            2.645732           -2.416733
 C           -1.224947            2.278216           -1.788203
 C           -2.465959            2.923138           -2.099805
 C           -3.636551            2.556532           -1.475076
 C           -4.906891            3.201205           -1.777441
 C           -6.048921            2.828292           -1.153766
 C           -6.037140            1.766105           -0.160064
 C           -7.316442            1.386598            0.477228
 C           -8.386598            0.997369           -0.265643
 C           -9.634750            0.604312            0.365866
 C          -10.724564            0.203583           -0.374545
 C          -11.949216           -0.182470            0.259365
 C          -13.065449           -0.591234           -0.486586
 C          -14.261080           -0.966400            0.144918
 C          -15.407079           -1.385073           -0.605726
 C          -16.576213           -1.751283            0.022303
 C          -17.749790           -2.179266           -0.726133
 C          -18.891808           -2.535958           -0.090707
 C          -18.975667           -2.500892            1.355572
 C          -17.913747           -2.110673            2.100921
 C          -16.660129           -1.716023            1.473542
 C          -15.570054           -1.316609            2.213924
 C          -14.343664           -0.931451            1.581486
 C          -13.226924           -0.523145            2.327437
 C          -12.031025           -0.147957            1.696043
 C          -10.884235            0.270742            2.446290
 C           -9.716413            0.638349            1.817061
 C           -8.541403            1.067066            2.563078
 C           -7.400004            1.423741            1.929003
 C           -4.876871            1.133512            0.159783
 C           -3.624238            1.496057           -0.480563
 C           -2.443341            0.860841           -0.167413
 C           -1.214542            1.227507           -0.804384
 C           -0.006529            0.586816           -0.489959
 C            1.192572            0.954725           -1.118824
 C            2.430654            0.307219           -0.805636
 C            3.602862            0.673999           -1.428187
 C            4.865242            0.025032           -1.118375
 C            7.408409           -1.690381           -1.535683
 C            8.561079           -2.330293           -1.228946
 C            9.730984           -1.596953           -0.765709
 C           10.910162           -2.232162           -0.447865
 C           12.051583           -1.494039            0.005727
 C           13.258966           -2.131353            0.330931
 C           14.370185           -1.397137            0.774130
 C           15.608106           -2.035696            1.109111
 C           16.692634           -1.306800            1.543243
 C           17.957770           -1.940571            1.887778
 H           19.963828           -1.671393            2.573013
 H           19.791251            0.775188            2.783708
 H           17.667221            1.956393            2.218437
 H           15.319732            1.854406            1.439741
 H           12.985792            1.753872            0.665760
 H           10.652515            1.660476           -0.107551
 H            8.310035            1.569539           -0.877425
 H            6.956103            1.716257           -3.206360
 H            4.837451            2.890122           -3.798666
 H            2.396000            3.169354           -3.477907
 H           -0.032263            3.440845           -3.161863
 H           -2.460587            3.715618           -2.847737
 H           -4.902038            3.994753           -2.524766
 H           -7.002973            3.309116           -1.369334
 H           -8.337784            0.958390           -1.354004
 H          -10.674491            0.172083           -1.462862
 H          -13.001787           -0.617343           -1.574168
 H          -15.329781           -1.406634           -1.692446
 H          -17.671192           -2.200411           -1.812363
 H          -19.774438           -2.857229           -0.641334
 H          -19.917028           -2.797690            1.815279
 H          -17.961526           -2.079123            3.188632
 H          -15.618980           -1.285458            3.301955
 H          -13.289371           -0.496801            3.415016
 H          -10.959462            0.291394            3.533274
 H           -8.617312            1.089391            3.650311
 H           -6.517741            1.751452            2.478694
 H           -4.852923            0.330860            0.897108
 H           -2.422091            0.062784            0.574586
 H            0.000496           -0.209157            0.254377
 H            2.423569           -0.486580           -0.058814
 H            4.855675           -0.764002           -0.366161
 H            6.530018           -2.230338           -1.888715
 H            8.650184           -3.413035           -1.318824
 H           10.998742           -3.314773           -0.535744
 H           13.334846           -3.214382            0.237616
 H           15.670389           -3.119081            1.011291
 H           18.018766           -3.023654            1.789661

