104

 C           -7.003078            0.172876           -5.533639
 C           -6.560923            1.512657           -5.769248
 C           -5.989151            2.242017           -4.762101
 C           -5.828479            1.674631           -3.452450
 C           -5.246853            2.411563           -2.387421
 C           -5.105670            1.864533           -1.121213
 C           -5.556342            0.517730           -0.890887
 C           -6.116194           -0.217184           -1.924186
 C           -6.268129            0.342515           -3.219058
 C           -6.859884           -0.397826           -4.297968
 C           -5.435390           -0.055743            0.442489
 C           -4.911846            0.643654            1.474347
 C           -4.864303            0.037853            2.829450
 C           -5.954310            0.108650            3.639543
 C           -5.941067           -0.491307            4.954854
 C           -4.841110           -1.137929            5.409109
 C           -3.640683           -1.240786            4.591739
 C           -2.515848           -1.890438            5.048857
 C           -1.332900           -1.983576            4.247398
 C           -0.181021           -2.638494            4.709415
 C            0.973809           -2.715514            3.916138
 C            2.159603           -3.371992            4.378363
 C            3.290624           -3.440833            3.596106
 C            4.500322           -4.098924            4.068923
 C            5.609997           -4.158751            3.294837
 C            5.619604           -3.576411            1.971559
 C            4.516903           -2.954156            1.475303
 C            4.545001           -2.383770            0.104443
 C            4.264785           -3.170873           -0.958608
 C            4.334461           -2.669785           -2.324407
 C            4.059221           -3.506234           -3.394787
 C            4.153294           -3.037336           -4.730611
 C            3.886362           -3.892965           -5.852592
 C            3.995019           -3.414843           -7.130395
 C            4.371773           -2.055252           -7.366122
 C            4.628644           -1.214364           -6.317228
 C            4.527932           -1.685524           -4.964164
 C            4.796852           -0.837476           -3.857701
 C            4.710586           -1.299998           -2.553466
 C            4.997320           -0.433580           -1.398989
 C            5.355405            0.896025           -1.564275
 C            5.635547            1.734064           -0.453686
 C            6.016801            3.108790           -0.620756
 C            6.281676            3.892113            0.470041
 C            6.178617            3.355296            1.791947
 C            5.816091            2.049556            1.983493
 C            5.537655            1.199754            0.859797
 C            5.170532           -0.160767            1.025532
 C            4.909027           -0.972904           -0.066303
 C            3.292496           -2.846200            2.268581
 C            2.162132           -2.209331            1.806962
 C            0.976234           -2.119188            2.606379
 C           -0.176998           -1.465118            2.144621
 C           -1.332062           -1.384804            2.938813
 C           -2.515449           -0.718578            2.481682
 C           -3.643302           -0.638103            3.267943
 C           -4.412469            2.011235            1.293466
 C           -3.852872            2.717938            2.346041
 C           -3.382690            4.045527            2.173881
 C           -2.805390            4.789607            3.258265
 C           -2.369855            6.072421            3.064066
 C           -2.480325            6.688041            1.777508
 C           -3.020565            6.002729            0.723143
 C           -3.488918            4.655693            0.894501
 C           -4.055250            3.919648           -0.178417
 C           -4.514925            2.622450           -0.006729
 H           -7.453573           -0.377999           -6.357683
 H           -6.689314            1.934235           -6.764952
 H           -5.647029            3.261715           -4.931692
 H           -4.910741            3.431278           -2.585959
 H           -6.451675           -1.239670           -1.751917
 H           -7.190496           -1.417736           -4.107445
 H           -5.796551           -1.076553            0.580989
 H           -6.864826            0.616397            3.320991
 H           -6.844348           -0.405384            5.557658
 H           -4.817809           -1.599597            6.395360
 H           -2.504168           -2.349049            6.037110
 H           -0.182557           -3.091809            5.700074
 H            2.145272           -3.818419            5.372160
 H            4.475943           -4.538094            5.065380
 H            6.521885           -4.645692            3.638441
 H            6.536789           -3.654477            1.387666
 H            3.985789           -4.217722           -0.824966
 H            3.768403           -4.542173           -3.221676
 H            3.598506           -4.925536           -5.660812
 H            3.798209           -4.055690           -7.988310
 H            4.447581           -1.708504           -8.395536
 H            4.913875           -0.177165           -6.485929
 H            5.079002            0.198563           -4.055693
 H            5.428906            1.323965           -2.566042
 H            6.089379            3.508386           -1.630908
 H            6.573741            4.934772            0.354486
 H            6.393581            4.008285            2.636406
 H            5.730761            1.629517            2.985001
 H            5.096694           -0.560286            2.039775
 H            2.147644           -1.754103            0.813483
 H           -0.174958           -1.009682            1.152928
 H           -2.499649           -0.269468            1.485435
 H           -3.764247            2.258062            3.333170
 H           -2.723551            4.307958            4.231950
 H           -1.931968            6.646524            3.879162
 H           -2.124210            7.710287            1.659019
 H           -3.106212            6.460965           -0.260747
 H           -4.124054            4.401189           -1.155901

