96

 C           -5.198685           -6.966720            3.172303
 C           -4.819434           -7.301279            1.841599
 C           -4.720021           -6.323629            0.882627
 C           -4.992371           -4.955079            1.196057
 C           -5.371144           -4.625387            2.523672
 C           -5.468329           -5.662838            3.505198
 C           -5.650338           -3.267871            2.872089
 C           -5.553273           -2.263326            1.935697
 C           -5.833100           -0.869801            2.272169
 C           -5.731158            0.115447            1.355494
 C           -5.337752           -0.164615           -0.021592
 C           -5.060114           -1.517475           -0.391552
 C           -4.680964           -1.814391           -1.724861
 C           -4.583846           -0.769667           -2.672422
 C           -4.862495            0.539461           -2.299090
 C           -4.806978            1.628079           -3.305922
 C           -5.926099            1.949033           -4.008889
 C           -5.907446            3.006539           -4.994339
 C           -4.769993            3.698425           -5.242060
 C           -3.538553            3.399198           -4.524898
 C           -2.378172            4.096857           -4.774851
 C           -1.168377            3.806771           -4.066060
 C            0.016363            4.514517           -4.318758
 C            1.195371            4.225632           -3.615327
 C            2.411049            4.938253           -3.869218
 C            3.565967            4.652192           -3.176404
 C            4.803204            5.373893           -3.438520
 C            5.934843            5.091617           -2.750363
 C            5.941796            4.062344           -1.735325
 C            4.817469            3.351460           -1.452148
 C            4.862823            2.295146           -0.410995
 C            5.180353            0.971867           -0.786858
 C            5.275380           -0.026832            0.177875
 C            5.043928            0.290300            1.552766
 C            4.718152            1.620551            1.918821
 C            4.629001            2.617461            0.920197
 C            4.492345            1.919984            3.313221
 C            4.586627            0.948779            4.260916
 C            4.913071           -0.415588            3.916091
 C            5.141247           -0.732249            2.566763
 C            5.474977           -2.083760            2.180459
 C            5.564618           -3.067733            3.139169
 C            5.331697           -2.772453            4.517849
 C            5.421379           -3.802950            5.507347
 C            5.196967           -3.520906            6.831674
 C            4.872158           -2.195014            7.235499
 C            4.780423           -1.189961            6.304444
 C            5.006935           -1.449466            4.916450
 C            5.708506           -2.365455            0.766470
 C            5.613953           -1.402097           -0.173874
 C            3.563962            3.610323           -2.160713
 C            2.403314            2.914575           -1.902854
 C            1.190566            3.190310           -2.615882
 C            0.004721            2.479877           -2.367038
 C           -1.175393            2.764931           -3.073433
 C           -2.393535            2.047630           -2.835209
 C           -3.548267            2.340301           -3.527044
 C           -5.234662            0.846684           -0.972422
 C           -4.409993           -3.187820           -2.078746
 C           -4.511627           -4.181061           -1.155033
 C           -4.891257           -3.906739            0.211628
 C           -5.164960           -2.579296            0.580489
 H           -5.269337           -7.760202            3.914352
 H           -4.610480           -8.342374            1.600707
 H           -4.429298           -6.578067           -0.137964
 H           -5.759245           -5.394806            4.520065
 H           -5.941315           -3.044407            3.898231
 H           -6.129436           -0.658853            3.300169
 H           -5.940967            1.154422            1.611027
 H           -4.293744           -0.996801           -3.697787
 H           -6.865454            1.419436           -3.850089
 H           -6.835971            3.221770           -5.522045
 H           -4.739099            4.497340           -5.981820
 H           -2.358132            4.889722           -5.522201
 H            0.020937            5.300381           -5.073249
 H            2.400046            5.717653           -4.630783
 H            4.781517            6.145439           -4.207099
 H            6.867494            5.622680           -2.937906
 H            6.877099            3.875895           -1.207490
 H            5.353353            0.745383           -1.838641
 H            4.379722            3.640416            1.200446
 H            4.245894            2.947267            3.580846
 H            4.416043            1.182159            5.314150
 H            5.814106           -4.091796            2.862417
 H            5.669835           -4.813758            5.186534
 H            5.262344           -4.300490            7.588804
 H            4.698217           -1.994869            8.291545
 H            4.530966           -0.173048            6.611980
 H            5.963763           -3.392161            0.502147
 H            5.789062           -1.616724           -1.228405
 H            2.384617            2.131246           -1.141655
 H            0.000203            1.692649           -1.611933
 H           -2.383850            1.254366           -2.084191
 H           -5.442688            1.882412           -0.705151
 H           -4.123749           -3.402028           -3.108267
 H           -4.306882           -5.218129           -1.429573

