96

 C           -6.189870           -5.831437           -4.437316
 C           -6.515133           -4.462917           -4.484310
 C           -6.235452           -3.635059           -3.398871
 C           -5.614502           -4.184106           -2.234092
 C           -5.292818           -5.564231           -2.195906
 C           -5.589437           -6.378941           -3.314683
 C           -4.667466           -6.095934           -1.007995
 C           -4.385368           -5.293298            0.053630
 C           -4.697926           -3.882773            0.040585
 C           -5.312335           -3.342427           -1.100532
 C           -5.646193           -1.938336           -1.151177
 C           -5.366375           -1.128532           -0.073641
 C           -4.743990           -1.651672            1.101290
 C           -4.460720           -0.809211            2.231937
 C           -4.864882            0.618819            2.216155
 C           -6.079713            0.983180            2.706902
 C           -6.489429            2.369500            2.720521
 C           -5.670384            3.337836            2.245603
 C           -4.357077            3.012219            1.707873
 C           -3.515557            3.991150            1.227850
 C           -2.226704            3.668400            0.693558
 C           -1.359410            4.659954            0.209067
 C           -0.101076            4.327716           -0.315862
 C            0.798250            5.328625           -0.806614
 C            2.029452            4.992899           -1.324165
 C            2.948928            6.009776           -1.814829
 C            4.156255            5.670367           -2.325924
 C            4.564054            4.285334           -2.400205
 C            3.747456            3.292247           -1.957625
 C            4.180468            1.876748           -2.066011
 C            4.878863            1.249877           -0.976356
 C            5.127060            1.950443            0.243993
 C            5.804266            1.352293            1.282557
 C            6.063050            2.055415            2.536180
 C            6.730215            1.469593            3.552613
 C            7.224023            0.100457            3.449519
 C            6.990462           -0.621696            2.238089
 C            7.460447           -1.953413            2.114323
 C            8.152546           -2.550329            3.195178
 C            8.369786           -1.837660            4.363732
 C            7.909205           -0.514254            4.495614
 C            7.214831           -2.661630            0.880316
 C            6.542013           -2.070934           -0.143917
 C            6.046521           -0.717494           -0.043309
 C            6.278348           -0.004757            1.144118
 C            5.328132           -0.088938           -1.124711
 C            5.053805           -0.777950           -2.346950
 C            4.369861           -0.163375           -3.366019
 C            3.929885            1.180637           -3.228060
 C            2.435266            3.597239           -1.386339
 C            1.587212            2.621313           -0.912995
 C            0.304416            2.947762           -0.364130
 C           -0.561135            1.956703            0.124841
 C           -1.817622            2.289263            0.655721
 C           -2.707392            1.288218            1.164682
 C           -3.939873            1.618879            1.682196
 C           -3.838265           -1.323705            3.347995
 C           -3.480182           -2.697877            3.397972
 C           -3.757175           -3.526414            2.339352
 C           -4.397339           -3.027318            1.162449
 C           -6.278998           -1.416701           -2.359568
 C           -6.556786           -2.211840           -3.413908
 H           -6.416036           -6.460234           -5.298166
 H           -6.987114           -4.056349           -5.377140
 H           -5.340609           -7.438444           -3.284889
 H           -4.429266           -7.159100           -0.988608
 H           -3.912620           -5.702656            0.949123
 H           -5.614616           -0.065230           -0.101390
 H           -6.775447            0.242675            3.101177
 H           -7.474086            2.599861            3.125711
 H           -5.965071            4.386445            2.248757
 H           -3.816665            5.038289            1.245173
 H           -1.668102            5.704152            0.241373
 H            0.482009            6.370356           -0.759212
 H            2.627247            7.048537           -1.752626
 H            4.853241            6.421279           -2.696185
 H            5.544897            4.065275           -2.821411
 H            4.763370            2.976042            0.338308
 H            5.690802            3.077686            2.614626
 H            6.921936            1.998537            4.486365
 H            8.511000           -3.573914            3.099828
 H            8.901868           -2.299547            5.195134
 H            8.092818            0.025424            5.423171
 H            7.585283           -3.682909            0.795266
 H            6.360806           -2.612423           -1.074952
 H            5.399518           -1.807511           -2.455461
 H            4.157001           -0.690854           -4.294775
 H            3.396558            1.650968           -4.054133
 H            1.879514            1.568989           -0.946390
 H           -0.252398            0.910735            0.092134
 H           -2.381837            0.245694            1.131767
 H           -3.617219           -0.686995            4.204671
 H           -2.987485           -3.078032            4.291827
 H           -3.490856           -4.584077            2.380770
 H           -6.516677           -0.352177           -2.371980
 H           -7.029657           -1.818299           -4.313854

