68

 C            6.334308           -1.469364            2.063683
 C            6.162997           -1.088528            0.700736
 C            5.540739            0.091997            0.382854
 C            5.052323            0.958199            1.412654
 C            5.212525            0.572239            2.769310
 C            5.871128           -0.662591            3.071911
 C            4.713136            1.420648            3.808266
 C            4.083863            2.599614            3.499253
 C            3.929922            3.000627            2.142188
 C            4.404892            2.208425            1.120808
 C            4.275021            2.665286           -0.284945
 C            5.243266            3.448243           -0.831781
 C            5.137122            3.919672           -2.194193
 C            4.064117            3.597403           -2.954973
 C            2.993769            2.763447           -2.427061
 C            1.898780            2.433192           -3.193473
 C            0.853770            1.600241           -2.678771
 C           -0.264538            1.259316           -3.454570
 C           -1.277144            0.434149           -2.941784
 C           -2.426290            0.083733           -3.720869
 C           -3.415321           -0.728116           -3.212393
 C           -4.589487           -1.075369           -3.999950
 C           -5.556767           -1.876969           -3.494002
 C           -5.444469           -2.413850           -2.156542
 C           -4.371222           -2.122664           -1.373591
 C           -4.278742           -2.697621           -0.008805
 C           -3.676852           -3.922183            0.177205
 C           -3.618167           -4.509183            1.472601
 C           -4.165888           -3.865128            2.552804
 C           -4.793467           -2.588742            2.393395
 C           -5.371229           -1.901281            3.508683
 C           -5.959769           -0.673638            3.340302
 C           -6.000691           -0.065681            2.051593
 C           -5.460229           -0.705072            0.964897
 C           -4.845470           -1.990041            1.107302
 C           -3.299042           -1.254377           -1.860983
 C           -2.203315           -0.924198           -1.094772
 C           -1.165853           -0.074610           -1.600487
 C           -0.049165            0.271958           -0.822728
 C            0.962151            1.101324           -1.333474
 C            2.105603            1.466820           -0.550415
 C            3.098604            2.272608           -1.061380
 H            6.836262           -2.409993            2.284881
 H            6.533318           -1.751913           -0.079280
 H            5.404920            0.389268           -0.658444
 H            5.995375           -0.945108            4.116089
 H            4.842670            1.110377            4.843832
 H            3.696046            3.250263            4.282141
 H            3.433248            3.946401            1.926672
 H            6.123320            3.741054           -0.259532
 H            5.946680            4.539063           -2.578394
 H            3.968107            3.947267           -3.981927
 H            1.805871            2.800683           -4.215124
 H           -0.347816            1.640796           -4.471519
 H           -2.499557            0.478685           -4.733837
 H           -4.658494           -0.665049           -5.006513
 H           -6.441618           -2.141829           -4.071395
 H           -6.247240           -3.057737           -1.798079
 H           -3.241315           -4.460641           -0.664228
 H           -3.134877           -5.479077            1.583933
 H           -4.132871           -4.311055            3.545523
 H           -5.333056           -2.373713            4.488938
 H           -6.402110           -0.144229            4.182759
 H           -6.467060            0.912857            1.948475
 H           -5.487015           -0.245139           -0.024479
 H           -2.103764           -1.307262           -0.076355
 H            0.034164           -0.110118            0.195428
 H            2.172095            1.086016            0.471535

