80

 C           -4.976589            1.855329           -4.593798
 C           -4.983078            2.776326           -3.589946
 C           -4.930011            2.359724           -2.206957
 C           -4.924714            3.287129           -1.155624
 C           -4.878962            2.861821            0.180250
 C           -4.862528            3.812778            1.268073
 C           -4.822408            3.388541            2.561441
 C           -4.805053            1.986449            2.870202
 C           -4.821712            1.051954            1.872255
 C           -4.838889           -0.392747            2.212125
 C           -6.015857           -1.004978            2.511534
 C           -6.056117           -2.406930            2.863224
 C           -4.918962           -3.140757            2.912474
 C           -3.627036           -2.541316            2.609821
 C           -2.465165           -3.277827            2.668928
 C           -1.196379           -2.692889            2.355025
 C           -0.008527           -3.437602            2.411788
 C            1.225803           -2.856535            2.082808
 C            2.443329           -3.609025            2.119852
 C            3.650786           -3.033150            1.793273
 C            4.886487           -3.802739            1.815472
 C            6.071738           -3.226883            1.502548
 C            6.140742           -1.828665            1.140947
 C            5.018390           -1.061701            1.097526
 C            5.117766            0.375593            0.740677
 C            4.969440            0.778673           -0.646555
 C            4.685029           -0.138752           -1.668105
 C            4.560649            0.278494           -3.001014
 C            4.260975           -0.655140           -4.062706
 C            4.153748           -0.230816           -5.352746
 C            4.339947            1.157043           -5.682686
 C            4.618832            2.069612           -4.710316
 C            4.734113            1.662427           -3.328304
 C            5.009356            2.582880           -2.307259
 C            5.123818            2.166012           -0.972837
 C            5.394957            3.111008            0.086171
 C            5.508380            2.694070            1.377599
 C            5.371566            1.304328            1.711477
 C            3.707275           -1.630216            1.412322
 C            2.545218           -0.892660            1.362283
 C            1.276818           -1.472851            1.691246
 C            0.088364           -0.726632            1.642740
 C           -1.147816           -1.308333            1.966065
 C           -2.368505           -0.558707            1.920850
 C           -3.578541           -1.136356            2.234945
 C           -4.847423            1.460022            0.478716
 C           -4.845215            0.534510           -0.574671
 C           -4.881547            0.958876           -1.910662
 C           -4.871801            0.016123           -3.006037
 C           -4.916145            0.448923           -4.296966
 H           -5.016724            2.158098           -5.638952
 H           -5.030091            3.843567           -3.800943
 H           -4.956422            4.352910           -1.379416
 H           -4.881579            4.872952            1.019907
 H           -4.806141            4.096282            3.389243
 H           -4.780992            1.688520            3.918271
 H           -6.958274           -0.457678            2.494032
 H           -7.028757           -2.843873            3.086545
 H           -4.933082           -4.197724            3.176035
 H           -2.489109           -4.328691            2.955865
 H           -0.045024           -4.483351            2.714903
 H            2.390553           -4.657020            2.413317
 H            4.818331           -4.854777            2.090062
 H            7.002900           -3.792210            1.514607
 H            7.119661           -1.411454            0.904931
 H            4.555766           -1.195098           -1.422793
 H            4.123542           -1.702936           -3.797672
 H            3.926278           -0.925217           -6.159872
 H            4.251534            1.452813           -6.726855
 H            4.763301            3.122698           -4.946724
 H            5.135949            3.636522           -2.553778
 H            5.502933            4.161024           -0.181681
 H            5.708403            3.398056            2.184356
 H            5.479143            1.010490            2.755450
 H            2.567476            0.159119            1.066442
 H            0.125949            0.322377            1.346151
 H           -2.314499            0.492378            1.626425
 H           -4.812167           -0.534338           -0.352595
 H           -4.826695           -1.045603           -2.765664
 H           -4.906906           -0.252475           -5.129664

