100

 C            3.529732            5.530171            3.560462
 C            3.394346            4.393919            4.449099
 C            3.744277            3.151039            4.041427
 C            4.270195            2.910911            2.703209
 C            4.395644            4.053576            1.808120
 C            4.004675            5.367673            2.302864
 C            4.871583            3.892230            0.527838
 C            5.252255            2.596745            0.052085
 N            5.706340            2.458806           -1.225342
 C            6.055068            1.214622           -1.645929
 C            6.522358            1.013143           -2.987632
 C            6.869379           -0.243796           -3.423329
 C            7.333182           -0.474848           -4.785941
 C            7.669327           -1.715987           -5.209838
 C            7.582000           -2.854413           -4.315693
 C            7.158915           -2.699920           -3.038990
 C            6.776428           -1.390324           -2.525452
 C            6.335184           -1.228386           -1.234043
 C            5.956131            0.069858           -0.752706
 N            5.506411            0.208897            0.521039
 C            5.143590            1.451461            0.940867
 C            4.640186            1.646654            2.280207
 C            4.544317            0.467058            3.175803
 C            5.535078            0.211114            4.071915
 C            5.461773           -0.936678            4.948016
 C            4.410111           -1.787993            4.888138
 C            3.324992           -1.573694            3.941619
 C            2.263275           -2.446825            3.860069
 C            1.206706           -2.248013            2.914229
 C            0.143869           -3.156294            2.794868
 C           -0.868365           -2.964585            1.841992
 C           -1.937332           -3.903338            1.682677
 C           -2.912839           -3.723171            0.727642
 C           -3.985023           -4.692453            0.554947
 C           -4.936656           -4.517224           -0.392289
 C           -4.917336           -3.355106           -1.251632
 C           -3.939973           -2.415356           -1.135643
 C           -3.951970           -1.236666           -2.037446
 C           -4.899595           -0.180166           -1.767884
 N           -5.721390           -0.257839           -0.685882
 C           -6.599550            0.756126           -0.474314
 C           -7.478288            0.709044            0.659768
 C           -8.374943            1.725109            0.888277
 C           -9.274487            1.700417            2.035064
 C          -10.154067            2.705582            2.255908
 C          -10.226705            3.837953            1.352749
 C           -9.417018            3.913686            0.270234
 C           -8.447603            2.864438           -0.020592
 C           -7.619333            2.936781           -1.115510
 C           -6.669143            1.894054           -1.378766
 N           -5.849708            1.975468           -2.459509
 C           -4.965309            0.959768           -2.667920
 C           -4.087804            1.013024           -3.797398
 C           -3.187622           -0.000610           -4.029580
 C           -2.291871            0.043370           -5.178482
 C           -1.407282           -0.953979           -5.415660
 C           -1.328986           -2.095134           -4.526607
 C           -2.139076           -2.187111           -3.445452
 C           -3.113415           -1.148151           -3.135100
 C           -2.879860           -2.551566           -0.134902
 C           -1.868713           -1.628692            0.016144
 C           -0.831418           -1.806155            0.989488
 C            0.224955           -0.890333            1.120097
 C            1.251578           -1.093891            2.056160
 C            2.358637           -0.190507            2.169193
 C            3.379992           -0.413498            3.065712
 H            3.235289            6.508405            3.939820
 H            3.000978            4.576448            5.448811
 H            3.640171            2.286763            4.701737
 H            4.110827            6.210382            1.619523
 H            4.972102            4.735332           -0.159667
 H            6.585856            1.887543           -3.639304
 H            7.395219            0.390441           -5.445982
 H            8.013501           -1.898603           -6.227548
 H            7.867882           -3.829219           -4.709457
 H            7.088081           -3.545331           -2.353976
 H            6.253338           -2.068588           -0.539350
 H            6.412880            0.852052            4.147285
 H            6.281796           -1.089314            5.648489
 H            4.344894           -2.660555            5.536699
 H            2.211533           -3.317700            4.512491
 H            0.108639           -4.028805            3.446000
 H           -1.958225           -4.774107            2.337181
 H           -3.990239           -5.558018            1.216002
 H           -5.742087           -5.236480           -0.534503
 H           -5.717926           -3.252370           -1.983931
 H           -7.401397           -0.156570            1.322800
 H           -9.207217            0.842059            2.704072
 H          -10.829363            2.697214            3.110859
 H          -10.953067            4.618198            1.578931
 H           -9.460395            4.758099           -0.417766
 H           -7.654945            3.777984           -1.811559
 H           -4.163233            1.878936           -4.459260
 H           -2.365176            0.909632           -5.836172
 H           -0.733879           -0.930768           -6.272106
 H           -0.598329           -2.869536           -4.758905
 H           -2.085580           -3.043380           -2.768558
 H           -1.833059           -0.736790           -0.612410
 H            0.253649           -0.010611            0.476638
 H            2.377973            0.679666            1.510652

