96

 C           -2.577489           -7.364623           -0.659422
 C           -2.427425           -6.759681           -1.973051
 C           -2.692234           -5.450457           -2.181752
 C           -3.139115           -4.604946           -1.077832
 N           -3.397401           -3.320282           -1.282776
 C           -3.808382           -2.550398           -0.191022
 C           -4.073795           -1.185319           -0.378181
 C           -4.466826           -0.406279            0.722543
 N           -4.719821            0.954091            0.537748
 C           -5.058258            1.681380            1.594105
 C           -5.178240            1.069288            2.937925
 N           -4.961240           -0.225922            3.132934
 C           -4.597849           -1.006662            2.034625
 C           -4.349079           -2.376059            2.218135
 C           -3.951182           -3.152693            1.120358
 N           -3.685085           -4.511940            1.309730
 C           -3.289457           -5.221328            0.261175
 C           -2.986939           -6.642436            0.407640
 C           -5.536425            1.918409            4.068850
 C           -5.745675            3.241057            3.884928
 C           -5.638360            3.847636            2.572546
 C           -5.321720            3.122090            1.468838
 C           -5.263878            3.761303            0.132287
 C           -6.421097            4.115090           -0.489681
 C           -6.400239            4.756457           -1.785104
 C           -5.226825            5.017904           -2.408669
 C           -3.955722            4.656552           -1.797523
 C           -2.759712            4.907879           -2.432283
 C           -1.509814            4.539240           -1.838601
 C           -0.287604            4.768024           -2.489249
 C            0.927756            4.386841           -1.900057
 C            2.181967            4.599363           -2.557684
 C            3.368769            4.206164           -1.980374
 C            4.642383            4.403195           -2.657669
 C            5.804399            3.999813           -2.090835
 C            5.812224            3.371112           -0.788592
 C            4.653479            3.172863           -0.105379
 C            4.685557            2.550726            1.240122
 C            4.765805            3.308619            2.363616
 C            4.828596            2.714141            3.684817
 C            4.810087            1.373416            3.856598
 C            4.713824            0.487524            2.701503
 N            4.688772           -0.827505            2.881204
 C            4.583997           -1.645117            1.754478
 C            4.552320           -3.038818            1.918242
 C            4.432861           -3.858905            0.786588
 N            4.395198           -5.246165            0.952726
 C            4.274516           -6.000538           -0.131667
 C            4.224846           -7.455159           -0.012609
 C            4.101069           -8.224686           -1.117231
 C            4.015190           -7.638532           -2.444973
 C            4.054911           -6.299747           -2.629384
 C            4.185829           -5.402934           -1.484124
 N            4.222672           -4.089437           -1.665539
 C            4.345697           -3.273940           -0.537435
 C            4.382937           -1.880736           -0.701788
 C            4.504042           -1.060110            0.431267
 N            4.544892            0.325718            0.265485
 C            4.643868            1.085696            1.347728
 C            3.364634            3.571365           -0.671400
 C            2.168849            3.361698           -0.021791
 C            0.921778            3.754483           -0.607676
 C           -0.300817            3.528725            0.043840
 C           -1.516869            3.907674           -0.545986
 C           -2.771989            3.668808            0.102308
 C           -3.965092            4.014192           -0.491999
 H           -2.344873           -8.426793           -0.568901
 H           -2.090877           -7.406179           -2.784959
 H           -2.584944           -4.971443           -3.157940
 H           -3.969041           -0.729306           -1.369616
 H           -4.458671           -2.830694            3.208425
 H           -3.105340           -7.071986            1.405242
 H           -5.619167            1.433052            5.044156
 H           -6.007431            3.896003            4.718149
 H           -5.825832            4.921564            2.500427
 H           -7.392815            3.920035           -0.037149
 H           -7.357873            5.016030           -2.234513
 H           -5.195117            5.500383           -3.384937
 H           -2.741770            5.389710           -3.409446
 H           -0.282830            5.240132           -3.471117
 H            2.174050            5.076989           -3.537119
 H            4.621125            4.879979           -3.636948
 H            6.762183            4.132318           -2.592330
 H            6.773283            3.059181           -0.380965
 H            4.788610            4.399251            2.302142
 H            4.895169            3.394644            4.535903
 H            4.862994            0.899194            4.839466
 H            4.617566           -3.480382            2.918380
 H            4.291141           -7.870134            0.995943
 H            4.061998           -9.312925           -1.048028
 H            3.918028           -8.324159           -3.288104
 H            3.992624           -5.834325           -3.615903
 H            4.315202           -1.436743           -1.701685
 H            2.143755            2.879081            0.956240
 H           -0.306820            3.041873            1.019110
 H           -2.756195            3.188367            1.081424

