100

 C           -8.148385           -2.412603           -7.579059
 C           -7.566714           -3.742055           -7.557475
 C           -6.941074           -4.214017           -6.454897
 C           -6.833225           -3.387039           -5.253506
 N           -6.206507           -3.883419           -4.189110
 C           -6.095199           -3.097242           -3.042693
 C           -5.422881           -3.634548           -1.929545
 C           -5.279640           -2.878265           -0.760639
 C           -4.597199           -3.372476            0.400398
 C           -4.484603           -2.589204            1.523830
 C           -3.807514           -3.022753            2.734661
 C           -3.747047           -2.223457            3.825246
 C           -4.362313           -0.903447            3.817368
 C           -4.308423           -0.110891            5.070212
 C           -5.270527           -0.280948            6.016252
 C           -5.246600            0.480306            7.245324
 C           -4.265132            1.383943            7.478558
 C           -3.208784            1.612233            6.503210
 C           -2.212745            2.535349            6.731438
 C           -1.170078            2.756887            5.775579
 C           -0.155107            3.699911            5.999361
 C            0.864545            3.901417            5.056792
 C            1.901311            4.866516            5.267080
 C            2.901327            5.056341            4.339882
 C            3.950386            6.043373            4.552022
 C            4.938587            6.217432            3.642695
 C            4.977715            5.422184            2.435877
 C            4.020729            4.489740            2.181732
 C            4.090359            3.689860            0.934642
 C            4.899415            2.604603            0.841275
 C            5.007839            1.866505           -0.413071
 N            5.825173            0.816806           -0.468132
 C            5.953529            0.122494           -1.670449
 C            6.820786           -0.984688           -1.710911
 C            6.982959           -1.709112           -2.897542
 C            7.847743           -2.849455           -2.995344
 C            7.965968           -3.531243           -4.182742
 C            8.817750           -4.696624           -4.353589
 C            8.892381           -5.333587           -5.546494
 C            8.127185           -4.871012           -6.689570
 C            7.317928           -3.790869           -6.598753
 C            7.193630           -3.062543           -5.336656
 N            6.384800           -2.006538           -5.284102
 C            6.257141           -1.312026           -4.081581
 C            5.391339           -0.203574           -4.041366
 C            5.225455            0.518092           -2.853737
 C            4.349181            1.649555           -2.752956
 C            4.223447            2.324961           -1.562905
 C            3.354351            3.476525           -1.385553
 C            3.287673            4.125556           -0.199746
 C            2.924027            4.260683            3.122002
 C            1.934105            3.329221            2.901274
 C            0.875996            3.123808            3.846030
 C           -0.143936            2.185874            3.620049
 C           -1.169884            1.989284            4.558534
 C           -2.221839            1.041554            4.337831
 C           -3.219022            0.845070            5.267244
 C           -4.986241           -0.430705            2.709261
 C           -5.081164           -1.250760            1.505537
 N           -5.716915           -0.757782            0.444533
 C           -5.831285           -1.544506           -0.700957
 C           -6.506501           -1.008386           -1.812873
 C           -6.645974           -1.763221           -2.983290
 C           -7.318288           -1.265875           -4.148814
 C           -7.420663           -2.044574           -5.276549
 C           -8.081300           -1.604518           -6.494198
 H           -8.638910           -2.093668           -8.498218
 H           -7.654131           -4.344294           -8.462324
 H           -6.496169           -5.210049           -6.408489
 H           -5.014831           -4.645995           -1.994413
 H           -4.175382           -4.378456            0.367318
 H           -3.353926           -4.014424            2.728423
 H           -3.241156           -2.536346            4.739199
 H           -6.086553           -0.989627            5.874506
 H           -6.042881            0.300607            7.966668
 H           -4.233557            1.967596            8.397966
 H           -2.199589            3.119318            7.651496
 H           -0.159222            4.284448            6.919067
 H            1.880001            5.452406            6.185780
 H            3.906984            6.632498            5.467454
 H            5.729035            6.952680            3.789304
 H            5.799475            5.595280            1.740661
 H            5.499681            2.247529            1.681730
 H            7.361265           -1.267688           -0.804280
 H            8.403157           -3.158096           -2.108427
 H            9.388476           -5.033046           -3.488040
 H            9.525713           -6.209049           -5.686815
 H            8.230106           -5.426581           -7.622217
 H            6.731592           -3.419139           -7.441446
 H            4.851962            0.080574           -4.948019
 H            3.791633            1.956517           -3.639463
 H            2.762068            3.794929           -2.244085
 H            2.639096            4.990036           -0.053542
 H            1.937212            2.718436            1.996215
 H           -0.139541            1.600098            2.700106
 H           -2.214664            0.477600            3.402812
 H           -5.444802            0.560627            2.673201
 H           -6.916435            0.002429           -1.746856
 H           -7.741324           -0.260763           -4.115397
 H           -8.516034           -0.605005           -6.496798

