100

 C           -2.787446            2.551864            7.790542
 C           -2.511489            3.731671            6.991307
 C           -2.775502            3.755422            5.665091
 C           -3.351492            2.584430            5.003771
 N           -3.606651            2.648562            3.700305
 C           -4.156696            1.540481            3.057050
 C           -4.450899            0.324932            3.779976
 C           -4.163779            0.293778            5.186718
 C           -3.625570            1.392132            5.811026
 C           -3.316472            1.437949            7.230687
 C           -5.007054           -0.768301            3.110165
 C           -5.283317           -0.689085            1.732619
 N           -5.851065           -1.802126            1.115485
 C           -6.134137           -1.747060           -0.185417
 C           -6.738999           -2.913577           -0.825274
 C           -7.043785           -2.889439           -2.143477
 C           -6.777971           -1.716262           -2.954486
 C           -6.215767           -0.608867           -2.413225
 C           -5.866732           -0.563352           -1.003437
 C           -5.301623            0.535702           -0.400182
 C           -4.990398            0.519130            0.999556
 C           -4.432361            1.625250            1.672058
 C           -4.174458            2.888879            0.938018
 C           -5.083515            3.898788            1.004725
 C           -4.877574            5.131461            0.278409
 C           -3.772944            5.307018           -0.484834
 C           -2.757230            4.268902           -0.583644
 C           -1.624960            4.449633           -1.345824
 C           -0.615444            3.438073           -1.430074
 C            0.542493            3.619760           -2.201150
 C            1.530263            2.625666           -2.267704
 C            2.718312            2.800838           -3.047154
 C            3.688497            1.825386           -3.102369
 C            4.892392            2.002906           -3.901343
 C            5.839487            1.036849           -3.959903
 C            5.682222           -0.196069           -3.221727
 C            4.581992           -0.412956           -2.451790
 C            4.452548           -1.680938           -1.692478
 C            4.734025           -1.714379           -0.311778
 C            5.149477           -0.556717            0.425848
 C            5.421196           -0.645446            1.770841
 C            5.854332            0.485513            2.573973
 C            6.108900            0.341394            3.896665
 C            5.953551           -0.944774            4.549751
 C            5.553360           -2.037461            3.859148
 C            5.269193           -1.944073            2.428472
 N            4.885253           -3.040731            1.776467
 C            4.615891           -2.957842            0.411459
 C            4.223852           -4.132930           -0.255753
 C            3.950668           -4.105962           -1.626319
 C            3.557376           -5.281644           -2.350953
 C            3.303825           -5.215431           -3.699078
 C            2.906991           -6.362108           -4.499355
 C            2.675043           -6.235161           -5.827630
 C            2.813890           -4.952213           -6.492053
 C            3.178625           -3.845342           -5.805564
 C            3.444652           -3.919529           -4.368913
 N            3.806759           -2.811527           -3.728958
 C            4.066464           -2.867366           -2.360215
 C            3.516345            0.586806           -2.358723
 C            2.374084            0.396285           -1.613119
 C            1.352534            1.398832           -1.537358
 C            0.190586            1.216118           -0.769951
 C           -0.797577            2.211488           -0.700160
 C           -1.987272            2.043286            0.081849
 C           -2.949918            3.025972            0.147980
 H           -2.552361            2.598905            8.853434
 H           -2.084068            4.595492            7.501122
 H           -2.576673            4.626944            5.037458
 H           -4.386759           -0.620000            5.739870
 H           -3.528450            0.545969            7.819475
 H           -5.239197           -1.693647            3.642887
 H           -6.926141           -3.782359           -0.191302
 H           -7.497245           -3.749624           -2.636865
 H           -7.046018           -1.761836           -4.009543
 H           -6.007961            0.278955           -3.010891
 H           -5.079050            1.440919           -0.972700
 H           -5.984309            3.810353            1.611582
 H           -5.638766            5.905096            0.370876
 H           -3.603806            6.227801           -1.041019
 H           -1.471445            5.375437           -1.899328
 H            0.677470            4.547517           -2.755534
 H            2.835607            3.730863           -3.602453
 H            4.994968            2.936759           -4.452008
 H            6.739521            1.153363           -4.562327
 H            6.466002           -0.947774           -3.313003
 H            5.244383            0.393956           -0.107041
 H            5.964655            1.446019            2.070075
 H            6.435478            1.181257            4.509186
 H            6.170998           -0.996231            5.617052
 H            5.426894           -3.017033            4.324045
 H            4.140766           -5.061459            0.314185
 H            3.468862           -6.221365           -1.803435
 H            2.806275           -7.319679           -3.989288
 H            2.377950           -7.087286           -6.438170
 H            2.613166           -4.916068           -7.563038
 H            3.289224           -2.866306           -6.276872
 H            2.219581           -0.533289           -1.061724
 H            0.054251            0.285714           -0.217256
 H           -2.108679            1.109749            0.634762

