100

 C           -8.040185            4.496174           -4.267756
 C           -7.998690            3.125768           -4.743501
 C           -7.501989            2.132332           -3.971578
 C           -6.994286            2.419826           -2.630328
 N           -6.527240            1.413927           -1.894409
 C           -6.042262            1.681866           -0.614909
 C           -5.567765            0.604961            0.157142
 C           -5.075875            0.821024            1.450054
 C           -5.044650            2.164889            1.979101
 C           -5.519292            3.241750            1.208315
 C           -6.024170            3.021837           -0.078047
 C           -6.538496            4.079135           -0.899800
 C           -7.025569            3.806136           -2.155540
 C           -7.575406            4.821819           -3.037956
 N           -4.558716            2.439682            3.256122
 C           -4.109080            1.435654            4.006049
 C           -3.607486            1.738641            5.345575
 C           -3.142961            0.750753            6.144347
 C           -3.128447           -0.628224            5.695785
 C           -3.586464           -0.965173            4.466428
 C           -4.105197            0.042278            3.555658
 C           -4.598475           -0.244569            2.297630
 C           -4.691144           -1.642504            1.807768
 C           -5.815863           -2.365296            2.058289
 C           -5.939851           -3.728985            1.594778
 C           -4.934979           -4.316281            0.902443
 C           -3.706912           -3.593556            0.603088
 C           -2.682907           -4.185785           -0.101442
 C           -1.481791           -3.470262           -0.411612
 C           -0.438345           -4.064850           -1.136987
 C            0.729771           -3.349298           -1.441577
 C            1.803226           -3.944079           -2.179238
 C            2.948303           -3.237418           -2.471832
 C            4.044099           -3.846876           -3.211852
 C            5.167725           -3.147274           -3.498455
 C            5.307211           -1.772282           -3.074432
 C            4.315771           -1.152421           -2.379143
 C            4.493421            0.258943           -1.955854
 C            4.047768            1.304656           -2.740834
 C            3.329215            1.123367           -3.991518
 C            2.928420            2.186396           -4.728983
 C            3.207147            3.541890           -4.295238
 C            3.867377            3.781973           -3.139219
 C            4.317540            2.674125           -2.298097
 N            4.963298            2.957955           -1.168810
 C            5.403149            1.911669           -0.360087
 C            6.085161            2.237425            0.826587
 C            6.555781            1.226216            1.671524
 C            7.271502            1.500481            2.884171
 C            7.715772            0.467963            3.674838
 C            8.457623            0.668351            4.908672
 C            8.871775           -0.387080            5.649544
 C            8.583812           -1.748429            5.237422
 C            7.898592           -2.004268            4.099663
 C            7.432014           -0.906712            3.252996
 N            6.771874           -1.197887            2.134612
 C            6.326199           -0.155656            1.322690
 C            5.641884           -0.480383            0.136602
 C            5.181951            0.529564           -0.717099
 C            3.080036           -1.855648           -2.036368
 C            2.058118           -1.266385           -1.325410
 C            0.860582           -1.984847           -1.003722
 C           -0.182944           -1.391970           -0.274638
 C           -1.351930           -2.107079            0.030799
 C           -2.426184           -1.514377            0.771885
 C           -3.574575           -2.218202            1.058701
 H           -8.458152            5.247773           -4.936700
 H           -8.381961            2.929057           -5.745085
 H           -7.456283            1.092849           -4.302821
 H           -5.589874           -0.403108           -0.270962
 H           -5.488249            4.248463            1.631447
 H           -6.535511            5.094994           -0.501949
 H           -7.599358            5.847285           -2.669730
 H           -3.631653            2.785575            5.654265
 H           -2.765599            0.959663            7.145838
 H           -2.735334           -1.377650            6.381881
 H           -3.577153           -1.999948            4.117423
 H           -6.654302           -1.938285            2.610052
 H           -6.865577           -4.257156            1.821117
 H           -5.013371           -5.342442            0.544130
 H           -2.768967           -5.217482           -0.442189
 H           -0.536594           -5.097793           -1.469469
 H            1.692424           -4.978512           -2.504192
 H            3.924924           -4.885189           -3.520522
 H            5.995757           -3.592546           -4.049203
 H            6.232935           -1.253956           -3.327602
 H            3.122641            0.098557           -4.307446
 H            2.385942            2.057929           -5.664966
 H            2.864879            4.356459           -4.934127
 H            4.092512            4.790173           -2.785994
 H            6.241331            3.289850            1.074407
 H            7.454115            2.541123            3.156060
 H            8.665800            1.695313            5.208260
 H            9.431551           -0.249714            6.574214
 H            8.939953           -2.554625            5.879319
 H            7.665522           -3.017275            3.765295
 H            5.475524           -1.535597           -0.105831
 H            2.139988           -0.230971           -0.987385
 H           -0.083760           -0.358044            0.059508
 H           -2.309686           -0.480041            1.102953

