96

 C           -5.396926           -0.698668           -5.944360
 C           -5.624904            0.652770           -6.003944
 C           -5.682426            1.425499           -4.801853
 C           -5.499485            0.787400           -3.547142
 C           -5.263319           -0.631487           -3.506710
 C           -5.216234           -1.342923           -4.691857
 C           -5.078952           -1.293615           -2.201949
 C           -4.859017           -2.655874           -2.112471
 C           -4.676100           -3.289090           -0.855503
 C           -4.720465           -2.556165            0.302854
 C           -4.955580           -1.146282            0.257968
 C           -5.130730           -0.505978           -0.997500
 C           -5.360152            0.913923           -1.042096
 C           -5.394838            1.632045            0.139195
 C           -5.227716            0.994016            1.393062
 C           -5.022837           -0.365966            1.462245
 C           -4.912519           -1.021873            2.787984
 C           -6.038022           -1.447586            3.422364
 C           -5.968981           -2.055632            4.731863
 C           -4.778926           -2.209002            5.359334
 C           -3.538545           -1.782895            4.727594
 C           -2.325220           -1.944718            5.357567
 C           -1.102823           -1.541441            4.731136
 C            0.135228           -1.702797            5.370957
 C            1.328196           -1.309582            4.746415
 C            2.596927           -1.473792            5.389039
 C            3.765463           -1.085457            4.773624
 C            5.055992           -1.267139            5.422414
 C            6.203366           -0.892922            4.808545
 C            6.172878           -0.286956            3.496594
 C            4.995285           -0.082946            2.847013
 C            4.996009            0.577500            1.518944
 C            4.949167            1.951772            1.444668
 C            5.006216            2.605139            0.188856
 C            5.111912            1.888791           -0.989188
 C            5.192272            2.570282           -2.293652
 C            5.179788            3.950067           -2.389067
 C            5.251979            4.600662           -3.648990
 C            5.336087            3.866706           -4.804982
 C            5.356945            2.437673           -4.749482
 C            5.287586            1.781283           -3.492786
 C            5.315686            0.343316           -3.447084
 C            5.405985           -0.368775           -4.629306
 C            5.471555            0.293199           -5.883904
 C            5.448094            1.663333           -5.948397
 C            5.248593           -0.336875           -2.140310
 C            5.282647           -1.716009           -2.045668
 C            5.210629           -2.367602           -0.786847
 C            5.110924           -1.634962            0.368242
 C            5.082760           -0.206056            0.318086
 C            5.146532            0.451066           -0.939294
 C            3.724155           -0.488560            3.447579
 C            2.513144           -0.330066            2.810491
 C            1.283664           -0.730679            3.429578
 C            0.043395           -0.570952            2.789984
 C           -1.152416           -0.961794            3.414842
 C           -2.427844           -0.797700            2.781193
 C           -3.594857           -1.183675            3.403200
 C           -5.556828            1.575107           -2.344663
 C           -5.797727            2.934087           -2.435202
 C           -5.982071            3.565975           -3.693226
 C           -5.924193            2.834259           -4.852246
 H           -5.351108           -1.298747           -6.852651
 H           -5.764496            1.156920           -6.958792
 H           -5.038522           -2.419371           -4.688484
 H           -4.820815           -3.273678           -3.011151
 H           -4.499865           -4.363939           -0.830526
 H           -4.575310           -3.034151            1.273129
 H           -5.560282            2.711254            0.129505
 H           -5.270932            1.596948            2.300999
 H           -7.020880           -1.339663            2.963960
 H           -6.903519           -2.377363            5.189509
 H           -4.709182           -2.655560            6.350218
 H           -2.271529           -2.388191            6.351396
 H            0.170551           -2.139240            6.368528
 H            2.615541           -1.918752            6.383481
 H            5.059382           -1.715920            6.414749
 H            7.175961           -1.030535            5.279188
 H            7.123352            0.002747            3.048821
 H            4.873957            2.555614            2.349892
 H            4.971451            3.696383            0.175122
 H            5.113120            4.569164           -1.493001
 H            5.238061            5.689877           -3.676747
 H            5.388306            4.354633           -5.777011
 H            5.428706           -1.459541           -4.622019
 H            5.540727           -0.308294           -6.789766
 H            5.497394            2.181191           -6.904854
 H            5.365072           -2.333505           -2.941585
 H            5.235063           -3.456428           -0.757804
 H            5.049226           -2.128083            1.339837
 H            2.466241            0.107022            1.810026
 H            0.008090           -0.135213            1.790210
 H           -2.452389           -0.355892            1.782008
 H           -5.850595            3.550866           -1.536617
 H           -6.168717            4.639262           -3.717086
 H           -6.060466            3.308610           -5.822837

