102

 C            5.459614            7.868852           -3.669292
 C            5.265704            6.540299           -3.849514
 C            5.392127            5.605767           -2.739780
 C            5.195110            4.252960           -2.901572
 C            5.317442            3.346935           -1.798457
 C            5.113486            1.966704           -1.958914
 C            5.233127            1.090171           -0.872466
 C            5.043730           -0.325171           -0.990368
 C            5.175725           -1.136931            0.112079
 C            5.016017           -2.577931            0.061631
 C            5.162369           -3.333789            1.180992
 C            5.036580           -4.810029            1.143060
 C            6.153433           -5.584569            1.096691
 C            6.055778           -7.026347            1.051488
 C            4.847232           -7.637319            1.056829
 C            3.615558           -6.863238            1.114683
 C            2.383683           -7.477906            1.129512
 C            1.172409           -6.716779            1.193480
 C           -0.085716           -7.337420            1.212991
 C           -1.265201           -6.579883            1.276779
 C           -2.555146           -7.200773            1.301089
 C           -3.708959           -6.452046            1.365089
 C           -5.020247           -7.083706            1.394870
 C           -6.151109           -6.341057            1.455044
 C           -6.084257           -4.897159            1.487203
 C           -4.887005           -4.252233            1.461149
 C           -4.846119           -2.770983            1.495860
 C           -4.561873           -2.131235            2.773002
 C           -4.559468           -0.784897            2.890749
 C           -4.839413            0.065297            1.733287
 N           -4.855151            1.385836            1.898113
 C           -5.124800            2.201007            0.798415
 C           -5.162504            3.593131            0.987298
 C           -5.426869            4.450461           -0.090987
 C           -5.475939            5.872935            0.078650
 C           -5.725549            6.710708           -0.984773
 C           -5.774262            8.158094           -0.828824
 C           -6.014353            8.967180           -1.888431
 C           -6.232772            8.411935           -3.209129
 C           -6.203476            7.072581           -3.410297
 C           -5.948240            6.153489           -2.309828
 C           -5.913007            4.789642           -2.493852
 C           -5.654206            3.898816           -1.402061
 C           -5.619464            2.506911           -1.586415
 C           -5.365716            1.644424           -0.512022
 C           -5.342219            0.218216           -0.648901
 C           -5.094734           -0.579694            0.443580
 C           -5.089859           -2.029392            0.384004
 C           -3.630732           -4.999904            1.403223
 C           -2.398584           -4.384785            1.379343
 C           -1.184576           -5.143969            1.320110
 C            0.075193           -4.523632            1.303253
 C            1.255831           -5.281121            1.241073
 C            2.548736           -4.663065            1.223901
 C            3.702939           -5.411811            1.160989
 C            5.469216           -2.717524            2.464368
 C            5.631553           -1.380286            2.572192
 C            5.501961           -0.517228            1.398107
 N            5.686964            0.792562            1.544658
 C            5.565083            1.620723            0.428900
 C            5.773551            3.000819            0.592444
 C            5.655926            3.871880           -0.500337
 C            5.862445            5.282931           -0.356407
 C            5.736133            6.135720           -1.429437
 C            5.936095            7.572422           -1.297463
 C            5.802705            8.396910           -2.363933
 H            5.365763            8.576172           -4.491860
 H            5.009619            6.128855           -4.825120
 H            4.939159            3.842542           -3.878196
 H            4.857948            1.572688           -2.942747
 H            4.797108           -0.739997           -1.968360
 H            4.781984           -3.029310           -0.903004
 H            7.149846           -5.142677            1.088255
 H            6.984129           -7.594844            1.011555
 H            4.757208           -8.722354            1.019795
 H            2.306362           -8.564249            1.093546
 H           -0.147800           -8.424583            1.179181
 H           -2.602160           -8.288927            1.267054
 H           -5.054161           -8.172239            1.367444
 H           -7.137756           -6.802043            1.480061
 H           -7.023908           -4.346813            1.535187
 H           -4.356664           -2.781978            3.624941
 H           -4.355972           -0.277223            3.836468
 H           -4.983070            3.995338            1.986929
 H           -5.309258            6.277481            1.077487
 H           -5.609673            8.560273            0.170323
 H           -6.051497           10.050532           -1.782579
 H           -6.420459            9.107863           -4.025385
 H           -6.368295            6.640802           -4.396738
 H           -6.081692            4.358416           -3.480411
 H           -5.793594            2.092715           -2.579624
 H           -5.529570           -0.215475           -1.631751
 H           -5.294425           -2.497701           -0.579028
 H           -2.320713           -3.295606            1.403613
 H            0.137455           -3.435277            1.340781
 H            2.595243           -3.572521            1.264000
 H            5.560602           -3.377466            3.328721
 H            5.863601           -0.889750            3.520358
 H            6.027036            3.382672            1.583923
 H            6.122549            5.666058            0.630816
 H            6.195090            7.953620           -0.310198
 H            5.948430            9.472604           -2.275551

