92

 C           -9.170453           -2.184533            3.012174
 C           -8.424302           -1.075348            2.871454
 C           -7.702638           -0.997237            1.597095
 C           -6.873527           -0.009329            1.151360
 C           -6.259443           -0.124612           -0.150053
 C           -5.413805            0.881949           -0.639288
 C           -4.812542            0.783629           -1.902875
 C           -5.062867           -0.382923           -2.705373
 C           -5.910398           -1.389509           -2.219508
 C           -6.517904           -1.282937           -0.960429
 C           -7.399949           -2.315467           -0.463948
 C           -7.957515           -2.156839            0.760938
 S           -9.059125           -3.242879            1.598516
 C           -4.443078           -0.505606           -4.005235
 C           -3.634739            0.493238           -4.433716
 S           -2.764298            0.596386           -5.958910
 C           -2.070976            2.174272           -5.558535
 C           -2.469598            2.606492           -4.350089
 C           -3.370475            1.684709           -3.650187
 C           -3.950525            1.832177           -2.416731
 C           -3.733183            3.063520           -1.619890
 C           -4.572281            4.123097           -1.773454
 C           -4.369903            5.344374           -1.026571
 C           -3.331264            5.463541           -0.165669
 C           -2.399729            4.364157            0.043070
 C           -1.340724            4.478593            0.915740
 C           -0.434863            3.391262            1.133821
 C            0.648208            3.503024            2.019044
 C            1.522942            2.426821            2.231818
 C            2.639669            2.532676            3.122044
 C            3.494445            1.472980            3.327388
 C            4.641041            1.586843            4.217626
 C            5.477362            0.540301            4.415711
 C            5.243679           -0.725223            3.757050
 C            4.188030           -0.890106            2.915148
 C            3.959866           -2.207381            2.274067
 C            3.237874           -3.181131            2.914646
 C            2.568930           -3.111447            4.218096
 C            1.941169           -4.244703            4.575388
 S            2.112111           -5.510260            3.350936
 C            3.069446           -4.480704            2.293531
 C            3.599264           -4.794539            1.087133
 C            4.358166           -3.786125            0.382920
 C            4.534277           -2.485542            0.970537
 C            5.264166           -1.515000            0.268158
 C            5.830257           -1.789102           -0.985610
 C            6.577217           -0.780176           -1.698640
 C            7.126963           -1.077584           -2.911607
 C            7.915964           -0.209797           -3.792201
 C            8.322164           -0.803940           -4.927414
 S            7.776228           -2.483934           -5.029201
 C            6.955859           -2.405034           -3.475038
 C            6.259306           -3.384232           -2.848778
 C            5.664291           -3.094560           -1.563157
 C            4.928392           -4.064510           -0.868080
 C            3.261876            0.209923            2.644067
 C            2.196295            0.091026            1.779767
 C            1.302144            1.185214            1.538914
 C            0.222442            1.076945            0.647646
 C           -0.648527            2.156363            0.426968
 C           -1.749194            2.064809           -0.486454
 C           -2.606050            3.123989           -0.688646
 H           -9.791611           -2.481942            3.841401
 H           -8.329459           -0.280928            3.601743
 H           -6.658715            0.872061            1.753802
 H           -5.220275            1.762205           -0.020614
 H           -6.101026           -2.270396           -2.833434
 H           -7.590799           -3.187302           -1.087362
 H           -4.645246           -1.393604           -4.602151
 H           -1.414820            2.653120           -6.267017
 H           -2.180478            3.542550           -3.883308
 H           -5.414595            4.083371           -2.464722
 H           -5.077789            6.157458           -1.185647
 H           -3.159775            6.379967            0.398084
 H           -1.171180            5.404791            1.464260
 H            0.812615            4.440324            2.549278
 H            2.798745            3.481319            3.634134
 H            4.798019            2.544370            4.713162
 H            6.342794            0.615762            5.073701
 H            5.937967           -1.540834            3.961578
 H            2.607571           -2.196385            4.800146
 H            1.377980           -4.454122            5.470197
 H            3.477879           -5.775490            0.630246
 H            5.395442           -0.522067            0.706281
 H            6.685149            0.205323           -1.248011
 H            8.124092            0.813877           -3.505513
 H            8.908355           -0.394031           -5.733858
 H            6.131273           -4.377977           -3.274520
 H            4.797464           -5.054154           -1.307037
 H            2.010103           -0.849469            1.255366
 H            0.057389            0.137947            0.117053
 H           -1.893338            1.124591           -1.024420

