92

 C           -5.566525            5.096832            2.447687
 C           -5.443354            3.759284            2.500083
 C           -5.327866            3.117060            1.186543
 C           -5.193631            1.789674            0.900721
 C           -5.100510            1.352023           -0.472515
 C           -5.139764            2.329355           -1.525438
 C           -5.049760            1.915589           -2.861308
 C           -4.918949            0.560416           -3.193319
 C           -4.833416            0.146742           -4.576497
 C           -4.715273           -1.174014           -4.853266
 S           -4.597734           -1.948039           -6.428173
 C           -4.486133           -3.567462           -5.723039
 C           -4.533175           -3.536563           -4.379973
 C           -4.665576           -2.188824           -3.816633
 C           -4.742054           -1.821768           -2.504691
 C           -4.878179           -0.428106           -2.150896
 C           -4.980044           -0.013654           -0.806025
 C           -5.003658           -1.034068            0.273473
 C           -6.191278           -1.574726            0.658472
 C           -6.250213           -2.568137            1.706720
 C           -5.121446           -2.981135            2.330458
 C           -3.820877           -2.438727            1.964188
 C           -2.671007           -2.853523            2.597107
 C           -1.391289           -2.321180            2.238671
 C           -0.217969           -2.739272            2.884178
 C            1.031264           -2.210580            2.526342
 C            2.234115           -2.628877            3.180340
 C            3.458254           -2.107162            2.828088
 C            4.680137           -2.533324            3.495342
 C            5.882225           -2.017011            3.145866
 C            5.981898           -1.026801            2.097696
 C            4.873738           -0.591264            1.439437
 C            5.013719            0.428452            0.368093
 C            4.956656            1.798095            0.702275
 C            4.706874            2.236619            2.055545
 C            4.677164            3.569270            2.346862
 C            4.446911            4.213844            3.644095
 C            4.482252            5.556974            3.603115
 S            4.799402            6.162734            1.970699
 C            4.892650            4.542858            1.292040
 C            5.122436            4.186180            0.005576
 C            5.159504            2.779394           -0.327931
 C            5.399322            2.364928           -1.644962
 C            5.442742            1.005018           -1.980580
 C            5.243043            0.012553           -0.960496
 C            5.289504           -1.386061           -1.317621
 C            5.530938           -1.753035           -2.609423
 C            5.622500           -3.104946           -3.170752
 C            5.875035           -3.134761           -4.490744
 S            6.024003           -1.509274           -5.174643
 C            5.735588           -0.733869           -3.622540
 C            5.695128            0.590998           -3.343136
 C            3.546542           -1.111228            1.771158
 C            2.399686           -0.697735            1.129576
 C            1.113558           -1.225879            1.480245
 C           -0.062597           -0.809679            0.834649
 C           -1.314946           -1.335933            1.192661
 C           -2.525815           -0.919673            0.547380
 C           -3.749102           -1.440605            0.908133
 C           -5.280643            3.730762           -1.197001
 C           -5.371525            4.086364            0.106967
 S           -5.551436            5.699719            0.783778
 H           -5.667272            5.799872            3.258532
 H           -5.425333            3.162132            3.404056
 H           -5.152569            1.040726            1.693294
 H           -5.085536            2.660778           -3.656601
 H           -4.868417            0.908026           -5.354012
 H           -4.393445           -4.418527           -6.377929
 H           -4.482017           -4.399734           -3.726977
 H           -4.700795           -2.563736           -1.705632
 H           -7.128396           -1.274191            0.188399
 H           -7.229343           -2.965935            1.971473
 H           -5.148189           -3.728724            3.122459
 H           -2.712428           -3.600751            3.389210
 H           -0.277918           -3.485702            3.675496
 H            2.155838           -3.376018            3.969731
 H            4.587303           -3.280547            4.282676
 H            6.803728           -2.327348            3.637388
 H            6.972647           -0.641721            1.853379
 H            4.542487            1.483898            2.828286
 H            4.268218            3.613970            4.528563
 H            4.346505            6.262772            4.406429
 H            5.281867            4.916276           -0.786154
 H            5.557961            3.113592           -2.421766
 H            5.126493           -2.131860           -0.537920
 H            5.490044           -3.971692           -2.534140
 H            5.989687           -3.988157           -5.139085
 H            5.846664            1.355577           -4.103271
 H            2.448954            0.048840            0.332772
 H           -0.002432           -0.063593            0.040843
 H           -2.454491           -0.170678           -0.245483
 H           -5.311357            4.457711           -2.006869

