92

 C            8.721016           -2.526847           -4.433926
 C            8.263702           -1.280762           -4.646223
 C            7.525002           -0.713112           -3.513320
 C            6.938020            0.514728           -3.412629
 C            6.250207            0.881174           -2.197188
 C            5.632465            2.133148           -2.063395
 C            4.967555            2.496734           -0.882379
 C            4.919878            1.569399            0.215556
 C            5.529447            0.314038            0.077524
 C            6.193100           -0.049035           -1.103235
 C            6.821708           -1.344165           -1.236984
 C            7.453316           -1.641034           -2.398393
 S            8.291581           -3.126934           -2.826382
 C            4.245773            1.959245            1.442346
 C            4.224007            1.042657            2.606284
 C            5.233310            1.085154            3.517162
 C            5.232934            0.206950            4.665591
 C            4.224397           -0.675333            4.861629
 C            3.112591           -0.764456            3.925548
 C            2.076588           -1.649737            4.125025
 C            0.983218           -1.736459            3.204209
 C           -0.083349           -2.626383            3.405590
 C           -1.149116           -2.697166            2.495113
 C           -2.251598           -3.589522            2.693387
 C           -3.295687           -3.648398            1.797207
 C           -4.422198           -4.547409            2.004277
 C           -5.443260           -4.602948            1.116113
 C           -5.440389           -3.769912           -0.065459
 C           -4.415057           -2.910654           -0.311094
 C           -4.435836           -2.075956           -1.535173
 C           -3.998848           -2.563043           -2.728199
 S           -3.318911           -4.149145           -3.056946
 C           -3.110881           -3.798359           -4.777887
 C           -3.525539           -2.559375           -5.095477
 C           -4.048142           -1.795513           -3.957819
 C           -4.549447           -0.526964           -3.946392
 C           -5.021989            0.044299           -2.707989
 C           -4.962293           -0.722275           -1.492845
 C           -5.419738           -0.147273           -0.298424
 C           -5.940962            1.154201           -0.267726
 C           -6.412055            1.739687            0.967457
 C           -6.910691            2.999201            0.938820
 S           -7.546535            3.943487            2.279666
 C           -7.904213            5.334380            1.247203
 C           -7.567222            5.111201           -0.034953
 C           -6.990146            3.785184           -0.279889
 C           -6.550414            3.255936           -1.458328
 C           -6.009240            1.917584           -1.483398
 C           -5.545652            1.345773           -2.677152
 C           -3.287168           -2.800877            0.614627
 C           -2.234895           -1.937707            0.405721
 C           -1.144179           -1.851165            1.331082
 C           -0.076955           -0.961491            1.130091
 C            0.984691           -0.883294            2.045431
 C            2.071695            0.031558            1.858889
 C            3.109062            0.107893            2.761204
 C            3.667733            3.189731            1.500477
 S            2.798136            3.906374            2.848060
 C            2.492273            5.407414            1.964217
 C            3.011676            5.379492            0.724295
 C            3.703105            4.128647            0.395566
 C            4.338063            3.790037           -0.763248
 H            9.285689           -3.162240           -5.096973
 H            8.400427           -0.704838           -5.553166
 H            6.973289            1.232747           -4.229540
 H            5.669835            2.838450           -2.893913
 H            5.485585           -0.397265            0.906506
 H            6.767858           -2.042044           -0.402330
 H            6.064856            1.782132            3.409516
 H            6.068128            0.286648            5.360595
 H            4.210711           -1.342620            5.722782
 H            2.067739           -2.304689            4.995909
 H           -0.084873           -3.271169            4.283679
 H           -2.244529           -4.226003            3.577901
 H           -4.410053           -5.170919            2.897591
 H           -6.290896           -5.272288            1.258209
 H           -6.283629           -3.857196           -0.751288
 H           -2.689818           -4.555048           -5.420034
 H           -3.498672           -2.119750           -6.084536
 H           -4.605804            0.072284           -4.853007
 H           -5.367852           -0.724584            0.628553
 H           -6.351154            1.152146            1.882787
 H           -8.341837            6.215493            1.687962
 H           -7.689580            5.812906           -0.850659
 H           -6.596066            3.818106           -2.388910
 H           -5.593475            1.923924           -3.600217
 H           -2.210147           -1.296284           -0.478193
 H           -0.073698           -0.318438            0.249081
 H            2.053865            0.676216            0.977162
 H            1.941215            6.197688            2.448120
 H            2.953190            6.180180           -0.002087
 H            4.386152            4.473854           -1.608415

