92

 C           -4.503611           -6.255644            2.503974
 C           -3.746107           -6.647935            1.464671
 C           -3.645372           -5.654168            0.390694
 C           -2.962703           -5.739529           -0.787531
 C           -2.998710           -4.636928           -1.719838
 C           -2.313670           -4.712153           -2.940923
 C           -2.345897           -3.653625           -3.859992
 C           -3.094196           -2.466793           -3.548345
 C           -3.121182           -1.381365           -4.503360
 C           -2.448754           -1.521249           -5.671128
 S           -2.328426           -0.369409           -6.994307
 C           -1.308939           -1.447473           -7.956530
 C           -1.065879           -2.610084           -7.326303
 C           -1.694131           -2.715405           -6.005126
 C           -1.644121           -3.751291           -5.118624
 C           -3.793218           -2.391113           -2.325781
 C           -4.624646           -1.196289           -2.029993
 C           -5.925400           -1.174541           -2.428728
 C           -6.767526           -0.031535           -2.158098
 C           -6.276626            1.045312           -1.499894
 C           -4.892668            1.082189           -1.048746
 C           -4.390039            2.175625           -0.380132
 C           -3.029626            2.215616            0.064019
 C           -2.513925            3.328856            0.744439
 C           -1.178743            3.359036            1.173454
 C           -0.641741            4.490940            1.866647
 C            0.669902            4.518465            2.283581
 C            1.213656            5.671855            2.986794
 C            2.504859            5.695747            3.394005
 C            3.377242            4.571823            3.139268
 C            2.923825            3.467204            2.487068
 C            3.850905            2.332816            2.242476
 C            4.602977            2.294504            1.050120
 C            4.457558            3.310253            0.031228
 C            5.217430            3.227566           -1.087337
 S            5.240449            4.323342           -2.462336
 C            6.478894            3.382150           -3.303699
 C            6.860386            2.302863           -2.598336
 C            6.171798            2.157055           -1.311564
 C            6.326377            1.183086           -0.368674
 C            5.542253            1.226486            0.843527
 C            5.693814            0.238625            1.827052
 C            4.941719            0.268211            3.010080
 C            3.997997            1.330882            3.223950
 C            3.226670            1.351067            4.446944
 C            3.425485            0.371191            5.361128
 S            2.633330            0.168351            6.917857
 C            3.543880           -1.301760            7.288669
 C            4.397543           -1.630049            6.303111
 C            4.378034           -0.706254            5.164059
 C            5.113464           -0.754094            4.015878
 C            1.538733            3.380999            2.022429
 C            1.038894            2.282174            1.358736
 C           -0.323347            2.231320            0.913849
 C           -0.841994            1.117076            0.233951
 C           -2.178414            1.085255           -0.197592
 C           -2.724055           -0.042657           -0.894754
 C           -4.035815           -0.063042           -1.315377
 C           -3.751923           -3.455047           -1.401155
 C           -4.459597           -3.390140           -0.141706
 C           -4.398325           -4.451723            0.697775
 S           -5.166085           -4.632767            2.269314
 H           -4.737562           -6.789784            3.410738
 H           -3.236152           -7.599551            1.379905
 H           -2.387864           -6.625640           -1.049365
 H           -1.749409           -5.613402           -3.182829
 H           -3.682388           -0.477781           -4.257148
 H           -0.970442           -1.119580           -8.926189
 H           -0.468230           -3.425218           -7.715051
 H           -1.086985           -4.660453           -5.336132
 H           -6.367616           -2.016829           -2.961790
 H           -7.800819           -0.072421           -2.501357
 H           -6.897537            1.915022           -1.287179
 H           -5.023545            3.038285           -0.175034
 H           -3.160455            4.183174            0.942258
 H           -1.301338            5.337134            2.057553
 H            0.542283            6.510126            3.170528
 H            2.924818            6.552203            3.920768
 H            4.408643            4.640016            3.486837
 H            3.737643            4.115576            0.190022
 H            6.823540            3.716363           -4.269025
 H            7.602373            1.577262           -2.907713
 H            7.032460            0.366248           -0.504355
 H            6.412984           -0.565996            1.670576
 H            2.503353            2.154435            4.599801
 H            3.363314           -1.806693            8.223910
 H            5.059392           -2.487245            6.301794
 H            5.835466           -1.547982            3.835028
 H            1.676986            1.419008            1.155290
 H           -0.195183            0.261029            0.036931
 H           -2.066850           -0.894114           -1.086267
 H           -5.023741           -2.486971            0.099056

