92

 C            5.762516           -8.564164           -2.995666
 C            5.392165           -8.118420           -1.782744
 C            5.466524           -6.661437           -1.631922
 C            5.161418           -5.904699           -0.538072
 C            5.301487           -4.469079           -0.599296
 C            5.764115           -3.850104           -1.811439
 C            5.897266           -2.454950           -1.866751
 C            5.582090           -1.651875           -0.761545
 C            5.715127           -0.213193           -0.822172
 C            5.390842            0.514779            0.273563
 S            5.460718            2.261954            0.467167
 C            4.876890            2.180301            2.145707
 C            4.766106            3.439614            2.873215
 C            5.872672            3.983380            3.452788
 C            5.794332            5.230557            4.178453
 C            4.614904            5.884610            4.301714
 C            3.395783            5.352947            3.709727
 C            2.193164            6.011257            3.840297
 C            0.994138            5.495128            3.252083
 C           -0.235365            6.159566            3.381607
 C           -1.402488            5.641732            2.799692
 C           -2.663723            6.308601            2.923408
 C           -3.805284            5.793498            2.351095
 C           -5.084099            6.478926            2.471504
 C           -6.206690            5.965768            1.914593
 C           -6.163122            4.719819            1.183974
 C           -4.994694            4.035493            1.034227
 C           -4.985516            2.780424            0.290908
 C           -5.031264            1.503558            0.716589
 C           -5.059734            0.516096           -0.364423
 C           -5.120599           -0.843840           -0.266130
 C           -5.147981           -1.648489           -1.464552
 C           -5.208905           -3.048238           -1.394110
 C           -5.229828           -3.835943           -2.555009
 C           -5.191438           -3.194658           -3.840984
 C           -5.134806           -1.795092           -3.912934
 C           -5.110958           -1.009524           -2.751882
 C           -5.048828            0.433208           -2.828129
 C           -5.025598            1.143222           -1.674371
 S           -4.957404            2.890859           -1.484622
 C           -5.209213           -4.002555           -5.039678
 C           -5.260081           -5.350501           -4.912081
 S           -5.287949           -6.558828           -6.189892
 C           -5.349321           -7.902259           -5.040599
 C           -5.350036           -7.475718           -3.765786
 C           -5.299616           -6.016937           -3.622396
 C           -5.286079           -5.276479           -2.476142
 C           -3.746428            4.543379            1.609170
 C           -2.541429            3.890774            1.474146
 C           -1.339246            4.411005            2.056930
 C           -0.107851            3.749645            1.924067
 C            1.060232            4.264430            2.509780
 C            2.321425            3.593693            2.391364
 C            3.463408            4.103095            2.968572
 C            4.636891            0.913718            2.536011
 C            4.915375           -0.089353            1.506171
 C            4.785451           -1.445321            1.589836
 C            5.116798           -2.268432            0.450955
 C            4.989219           -3.664274            0.506781
 C            6.082051           -4.675288           -2.955088
 C            5.931659           -6.017571           -2.847727
 S            6.238965           -7.243082           -4.071393
 H            5.798240           -9.577206           -3.362397
 H            5.060608           -8.736951           -0.957902
 H            4.810674           -6.356131            0.388107
 H            6.249956           -1.987072           -2.786413
 H            6.070456            0.241925           -1.745568
 H            6.846027            3.495163            3.386605
 H            6.713604            5.618235            4.616411
 H            4.540186            6.827744            4.842631
 H            2.131186            6.945867            4.397766
 H           -0.284311            7.091871            3.943448
 H           -2.698489            7.241959            3.485342
 H           -5.099638            7.418919            3.022715
 H           -7.169550            6.468999            1.996991
 H           -7.096986            4.348567            0.759238
 H           -5.055334            1.190396            1.753310
 H           -5.149871           -1.345096            0.699632
 H           -5.239131           -3.533783           -0.418397
 H           -5.107210           -1.310129           -4.889208
 H           -5.022601            0.905596           -3.809035
 H           -5.179894           -3.505580           -6.008059
 H           -5.379846           -8.912196           -5.416246
 H           -5.383220           -8.110199           -2.888723
 H           -5.315401           -5.744918           -1.494126
 H           -2.474308            2.955595            0.913725
 H           -0.057099            2.820456            1.355033
 H            2.352574            2.660592            1.824330
 H            4.276662            0.618307            3.513860
 H            4.434907           -1.929650            2.499423
 H            4.638824           -4.132925            1.426697
 H            6.430929           -4.195084           -3.867947

