84

 C           -5.519595           -0.961433            4.722617
 C           -5.323986            0.116015            3.856036
 C           -5.230066           -0.097362            2.471139
 C           -5.330586           -1.420817            1.961106
 C           -5.524331           -2.511645            2.853165
 C           -5.619615           -2.265136            4.232192
 C           -5.619772           -3.853810            2.304270
 C           -5.530555           -4.075015            0.971116
 C           -5.338241           -2.981231            0.033352
 C           -5.249530           -3.200894           -1.350459
 C           -5.064584           -2.126556           -2.222506
 C           -4.969893           -0.820824           -1.736399
 C           -5.059190           -0.564653           -0.358913
 C           -5.240417           -1.654355            0.538202
 C           -4.979466            0.784098            0.196179
 C           -4.863659            1.937223           -0.731885
 C           -5.987534            2.595054           -1.125044
 C           -5.910594            3.735501           -2.009998
 C           -4.713342            4.179529           -2.461231
 C           -3.474602            3.518355           -2.075697
 C           -2.253807            3.968266           -2.526414
 C           -1.036556            3.307564           -2.163065
 C            0.210750            3.760202           -2.619788
 C            1.395187            3.094911           -2.268106
 C            2.674997            3.550429           -2.720883
 C            3.832945            2.889923           -2.376177
 C            5.135345            3.361041           -2.825834
 C            6.269806            2.702429           -2.489057
 C            6.215060            1.507533           -1.677209
 C            5.026861            1.021426           -1.227696
 C            5.002595           -0.220594           -0.414633
 C            4.939803           -1.432150           -1.027681
 C            4.970879           -2.668482           -0.269358
 C            5.065344           -2.598323            1.147722
 C            5.110548           -3.794939            1.915373
 C            5.065721           -5.035827            1.260008
 C            4.973447           -5.093377           -0.132252
 C            4.923919           -3.924813           -0.895198
 C            5.203796           -3.693045            3.362078
 C            5.250423           -2.488588            3.979651
 C            5.210921           -1.248103            3.223098
 C            5.262693            0.004825            3.854594
 C            5.220767            1.176370            3.096584
 C            5.131684            1.122885            1.704004
 C            5.083533           -0.113043            1.039854
 C            5.118860           -1.312642            1.804543
 C            3.768656            1.697099           -1.545650
 C            2.547287            1.248377           -1.094340
 C            1.330314            1.926439           -1.430931
 C            0.082516            1.479896           -0.966745
 C           -1.102752            2.148579           -1.312888
 C           -2.382944            1.707557           -0.842956
 C           -3.542960            2.358851           -1.199419
 C           -5.049449            0.997629            1.536873
 H           -5.596297           -0.782597            5.794959
 H           -5.246281            1.125791            4.255658
 H           -5.773383           -3.093501            4.921703
 H           -5.765016           -4.674483            3.006579
 H           -5.600784           -5.081723            0.559156
 H           -5.325249           -4.212825           -1.745412
 H           -4.993610           -2.307515           -3.295060
 H           -4.824077            0.005933           -2.433658
 H           -6.974713            2.282557           -0.784098
 H           -6.844901            4.219065           -2.293291
 H           -4.637866            5.039802           -3.125108
 H           -2.190756            4.840885           -3.175829
 H            0.260235            4.641198           -3.258229
 H            2.711085            4.440058           -3.348902
 H            5.159389            4.260129           -3.440314
 H            7.250328            3.045553           -2.817607
 H            7.155902            1.010511           -1.440322
 H            4.871701           -1.507828           -2.114159
 H            5.104280           -5.956916            1.839135
 H            4.940615           -6.062565           -0.629565
 H            4.850531           -3.988076           -1.979601
 H            5.233962           -4.622911            3.929792
 H            5.319215           -2.411809            5.064783
 H            5.335631            0.063406            4.939492
 H            5.258029            2.144446            3.596276
 H            5.097887            2.049502            1.128587
 H            2.481690            0.357390           -0.465170
 H            0.033039            0.597744           -0.326914
 H           -2.416620            0.832785           -0.189002
 H           -4.980299            2.005945            1.948380

