116

 C            4.124547            7.432555           -5.833448
 C            4.163110            8.001921           -4.498790
 C            4.231969            7.203883           -3.408305
 C            4.270279            5.751200           -3.537640
 C            4.338755            4.927723           -2.443865
 C            4.378305            3.494312           -2.584563
 C            4.448989            2.653198           -1.479881
 C            4.480177            1.243295           -1.629981
 C            4.551536            0.378481           -0.509785
 C            4.568541           -1.004081           -0.666634
 C            4.645692           -1.893554            0.463568
 C            4.652913           -3.255894            0.306088
 C            4.570852           -3.828831           -1.034412
 C            4.507126           -3.005625           -2.129847
 C            4.508560           -1.572369           -1.994570
 C            4.449842           -0.730998           -3.101400
 C            4.435083            0.677831           -2.952216
 C            4.371330            1.545086           -4.072914
 C            4.341565            2.926071           -3.915041
 C            4.270808            3.817559           -5.045177
 C            4.234525            5.178108           -4.880481
 C            4.159099            6.092027           -6.015351
 C            4.556743           -5.280611           -1.170943
 C            4.626254           -6.085656           -0.085709
 C            4.726469           -5.526529            1.246345
 C            4.743079           -4.182128            1.438580
 C            4.872790           -3.626560            2.808665
 C            6.104682           -3.414585            3.344013
 C            6.251125           -2.895161            4.685403
 C            5.162893           -2.609931            5.439680
 C            3.817142           -2.810345            4.921398
 C            2.704881           -2.518520            5.679304
 C            1.382163           -2.710701            5.165279
 C            0.243108           -2.414780            5.930016
 C           -1.046850           -2.600048            5.409406
 C           -2.218546           -2.292703            6.173454
 C           -3.480644           -2.474310            5.653367
 C           -4.672888           -2.152581            6.424826
 C           -5.910217           -2.327091            5.902528
 C           -6.080538           -2.848700            4.564903
 C           -5.004151           -3.172972            3.799742
 C           -5.203074           -3.732604            2.439829
 C           -5.467930           -5.055324            2.280591
 C           -5.691832           -5.615430            0.964182
 C           -5.652631           -4.831579           -0.137830
 C           -5.373781           -3.403717           -0.036935
 C           -5.336426           -2.600742           -1.148421
 C           -5.045920           -1.194061           -1.050549
 C           -5.007551           -0.373038           -2.173234
 C           -4.699242            1.005587           -2.063840
 C           -4.650755            1.850260           -3.202121
 C           -4.327985            3.197710           -3.086642
 C           -4.268495            4.064279           -4.236440
 C           -3.939399            5.389659           -4.115517
 C           -3.870230            6.276911           -5.271699
 C           -3.542169            7.582476           -5.133288
 C           -3.250773            8.140160           -3.825234
 C           -3.298528            7.365425           -2.716901
 C           -3.643393            5.950336           -2.799852
 C           -3.694692            5.150267           -1.687821
 C           -4.037610            3.754136           -1.782644
 C           -4.092931            2.936827           -0.659211
 C           -4.421123            1.561403           -0.766156
 C           -4.477046            0.720116            0.372818
 C           -4.782429           -0.632276            0.255312
 C           -4.843095           -1.497393            1.405211
 C           -5.128456           -2.833329            1.284725
 C           -3.642189           -2.992361            4.303771
 C           -2.527390           -3.291130            3.552656
 C           -1.204820           -3.106663            4.071957
 C           -0.065488           -3.405316            3.308147
 C            1.225191           -3.216595            3.827455
 C            2.396073           -3.513878            3.057256
 C            3.660112           -3.326617            3.570657
 H            4.067184            8.122782           -6.673750
 H            4.134846            9.087024           -4.412876
 H            4.260829            7.615777           -2.400121
 H            4.363492            5.339359           -1.435196
 H            4.478140            3.073976           -0.474949
 H            4.590970            0.813953            0.489036
 H            4.697808           -1.445798            1.458868
 H            4.450253           -3.419924           -3.136092
 H            4.411104           -1.153873           -4.104700
 H            4.342873            1.110425           -5.071612
 H            4.245257            3.374191           -6.040242
 H            4.130513            5.650665           -7.010848
 H            4.487085           -5.686982           -2.179326
 H            4.612718           -7.171186           -0.175015
 H            4.790519           -6.220521            2.084546
 H            7.011850           -3.630399            2.779732
 H            7.262926           -2.746843            5.061203
 H            5.257459           -2.222990            6.453545
 H            2.810707           -2.130203            6.691899
 H            0.362348           -2.035200            6.943978
 H           -2.085759           -1.905508            7.183319
 H           -4.528804           -1.766963            7.433353
 H           -6.809685           -2.085672            6.467895
 H           -7.097516           -2.973105            4.193102
 H           -5.521417           -5.730263            3.134869
 H           -5.894363           -6.683896            0.900979
 H           -5.825594           -5.237819           -1.133745
 H           -5.523262           -3.011997           -2.140048
 H           -5.212895           -0.789089           -3.158920
 H           -4.869008            1.424612           -4.181023
 H           -4.492420            3.630645           -5.210680
 H           -4.091143            5.844560           -6.246820
 H           -3.485814            8.252230           -5.990078
 H           -2.994635            9.197221           -3.773893
 H           -3.081454            7.768894           -1.728459
 H           -3.473660            5.552538           -0.699447
 H           -3.877917            3.349250            0.326481
 H           -4.272202            1.149133            1.354120
 H           -4.650758           -1.052996            2.384762
 H           -2.630114           -3.674547            2.534656
 H           -0.184829           -3.787491            2.293402
 H            2.259974           -3.893564            2.041850

