116

 C            4.180532            3.485145           10.096998
 C            4.363397            4.685662            9.302118
 C            4.510698            4.609728            7.959167
 C            4.491274            3.324071            7.270412
 C            4.639839            3.229217            5.910887
 C            4.619546            1.953825            5.241999
 C            4.768878            1.851783            3.863305
 C            4.743986            0.592629            3.213389
 C            4.887479            0.481902            1.807793
 C            4.854514           -0.756088            1.175629
 C            4.991812           -0.877862           -0.252826
 C            4.956208           -2.101236           -0.870943
 C            5.103363           -2.235660           -2.313661
 C            5.079714           -3.454357           -2.910003
 C            5.281415           -3.604680           -4.371249
 C            6.514934           -3.921397           -4.848804
 C            6.752590           -4.046665           -6.269099
 C            5.749719           -3.847320           -7.157004
 C            4.404304           -3.517626           -6.708320
 C            3.378331           -3.321973           -7.605682
 C            2.051754           -3.010224           -7.164970
 C            1.001222           -2.807253           -8.073016
 C           -0.294883           -2.505792           -7.626459
 C           -1.377144           -2.298630           -8.541015
 C           -2.645823           -2.001831           -8.094838
 C           -3.748212           -1.802778           -9.024836
 C           -4.995099           -1.518277           -8.579168
 C           -5.260581           -1.390572           -7.164011
 C           -4.268276           -1.556432           -6.248810
 C           -4.567645           -1.393533           -4.805720
 C           -4.361253           -0.213406           -4.168392
 C           -4.699877           -0.049157           -2.761465
 C           -4.507078            1.140129           -2.106567
 C           -4.850675            1.294043           -0.716580
 C           -4.654888            2.496649           -0.046099
 C           -4.988864            2.636231            1.323910
 C           -4.785683            3.856876            2.015366
 C           -5.108645            3.984493            3.361612
 C           -4.903299            5.219873            4.073470
 C           -5.222702            5.339685            5.401155
 C           -5.020334            6.585525            6.132583
 C           -5.341961            6.687119            7.442990
 C           -5.898370            5.554324            8.159772
 C           -6.107318            4.372950            7.533641
 C           -5.782526            4.199682            6.121854
 C           -5.988163            3.011227            5.469531
 C           -5.663845            2.854267            4.074306
 C           -5.869235            1.653250            3.403298
 C           -5.542979            1.512134            2.030400
 C           -5.744630            0.292519            1.336148
 C           -5.411080            0.163964           -0.008453
 C           -5.605357           -1.070966           -0.724866
 C           -5.266509           -1.189890           -2.048197
 C           -5.455062           -2.434636           -2.785500
 C           -5.124190           -2.535085           -4.092848
 C           -2.905556           -1.885741           -6.667994
 C           -1.878465           -2.088269           -5.772864
 C           -0.551637           -2.402642           -6.214410
 C            0.499984           -2.608024           -5.306610
 C            1.797415           -2.906768           -5.752419
 C            2.881734           -3.109070           -4.836817
 C            4.152743           -3.400369           -5.279917
 C            4.889407           -4.663543           -2.120751
 C            4.746813           -4.593005           -0.777846
 C            4.777676           -3.313517           -0.077279
 C            4.647359           -3.227675            1.284912
 C            4.677443           -1.956617            1.963249
 C            4.539374           -1.858124            3.343978
 C            4.564720           -0.600005            3.997792
 C            4.414624           -0.484872            5.403055
 C            4.437442            0.755733            6.032364
 C            4.283443            0.888181            7.458840
 C            4.307340            2.115859            8.069519
 C            4.153468            2.264762            9.512681
 H            4.066757            3.606633           11.173098
 H            4.376485            5.640248            9.825977
 H            4.647968            5.501193            7.348248
 H            4.777049            4.121061            5.299773
 H            4.905955            2.750509            3.262395
 H            5.023231            1.389765            1.220514
 H            5.126146            0.036706           -0.830459
 H            5.241204           -1.322547           -2.893436
 H            7.358217           -4.081056           -4.176952
 H            7.761729           -4.300170           -6.591512
 H            5.915401           -3.928224           -8.230381
 H            3.557821           -3.403325           -8.677353
 H            1.194775           -2.884674           -9.142287
 H           -1.172033           -2.383606           -9.607796
 H           -3.530876           -1.892932          -10.088207
 H           -5.829453           -1.373191           -9.264238
 H           -6.278827           -1.150762           -6.858060
 H           -3.942970            0.647886           -4.689999
 H           -4.087128            2.002096           -2.625025
 H           -4.235419            3.352476           -0.574443
 H           -4.366380            4.704091            1.473152
 H           -4.483760            6.060471            3.521153
 H           -4.601094            7.425884            5.580479
 H           -5.195017            7.612401            7.998062
 H           -6.138012            5.693698            9.212795
 H           -6.523538            3.514357            8.059424
 H           -6.403805            2.151169            5.993837
 H           -6.286637            0.797584            3.933421
 H           -6.167243           -0.554901            1.875484
 H           -6.032558           -1.912570           -0.180002
 H           -5.874626           -3.279202           -2.238678
 H           -5.261346           -3.459421           -4.653669
 H           -2.056556           -2.012134           -4.697809
 H            0.305560           -2.532519           -4.236146
 H            2.672338           -3.025277           -3.767998
 H            4.869019           -5.613629           -2.654251
 H            4.605311           -5.488990           -0.173258
 H            4.517490           -4.123952            1.891131
 H            4.406251           -2.758433            3.943419
 H            4.277526           -1.391592            5.991681
 H            4.145807           -0.022420            8.041265
 H            4.016489            1.355429           10.096830

