92

 C            6.552031            0.310311            3.283686
 C            6.241870           -1.024979            2.828399
 C            5.758430           -1.234051            1.577514
 C            5.543494           -0.128989            0.659211
 C            5.845068            1.206646            1.120423
 C            6.359073            1.378047            2.468433
 C            5.653842            2.289466            0.277376
 C            5.160695            2.112795           -1.042206
 C            4.967855            3.222649           -1.908675
 C            4.490752            3.049848           -3.198262
 C            4.288095            4.169693           -4.100631
 C            3.819319            3.973626           -5.359383
 C            3.510384            2.643452           -5.832816
 C            3.682765            1.565205           -5.026461
 C            4.181721            1.720244           -3.671387
 C            4.366474            0.631331           -2.833843
 C            4.859357            0.792557           -1.510826
 C            5.071042           -0.319054           -0.638232
 C            4.822851           -1.691772           -1.147247
 C            5.842410           -2.392157           -1.714017
 C            5.639339           -3.736113           -2.205453
 C            4.424520           -4.327310           -2.115519
 C            3.291995           -3.626192           -1.528116
 C            2.053314           -4.220024           -1.442470
 C            0.936081           -3.531029           -0.871142
 C           -0.328920           -4.131216           -0.790149
 C           -1.420373           -3.445189           -0.237058
 C           -2.717156           -4.046046           -0.159846
 C           -3.788503           -3.368537            0.376767
 C           -5.107650           -3.979973            0.446697
 C           -6.160693           -3.307051            0.968079
 C           -5.997643           -1.963393            1.474960
 C           -4.786056           -1.344808            1.443782
 C           -4.651904            0.029036            1.991277
 C           -4.836620            1.144783            1.117962
 C           -5.090655            0.983574           -0.270785
 C           -5.284359            2.077626           -1.099563
 C           -5.551126            1.923179           -2.518714
 C           -5.740781            3.006758           -3.313955
 C           -5.679479            4.342392           -2.764853
 C           -5.432663            4.538329           -1.444448
 C           -5.224211            3.412701           -0.550625
 C           -4.971970            3.585440            0.801122
 C           -4.773590            2.470154            1.659322
 C           -4.522462            2.647091            3.045516
 C           -4.334434            1.559160            3.882732
 C           -4.089916            1.731136            5.304516
 C           -3.917645            0.658798            6.118407
 C           -3.965562           -0.682343            5.584167
 C           -4.189589           -0.892127            4.262079
 C           -4.393549            0.218381            3.347840
 C           -3.612348           -2.016442            0.883786
 C           -2.370504           -1.422965            0.820087
 C           -1.240874           -2.107403            0.261818
 C            0.028824           -1.510613            0.185195
 C            1.121609           -2.193092           -0.374668
 C            2.422050           -1.596355           -0.472000
 C            3.484903           -2.273529           -1.028508
 H            6.941587            0.426388            4.293822
 H            6.407377           -1.850668            3.518668
 H            5.515052           -2.238441            1.225960
 H            6.584384            2.391893            2.796421
 H            5.885395            3.298272            0.618257
 H            5.204134            4.220179           -1.539420
 H            4.525675            5.165645           -3.729842
 H            3.662332            4.805603           -6.044071
 H            3.137451            2.539881           -6.850290
 H            3.454434            0.555819           -5.367516
 H            4.129187           -0.374572           -3.187468
 H            6.839101           -1.961139           -1.810934
 H            6.494627           -4.249003           -2.643553
 H            4.253776           -5.340120           -2.477912
 H            1.897184           -5.232922           -1.811993
 H           -0.466379           -5.145232           -1.163635
 H           -2.836680           -5.059705           -0.540764
 H           -5.210973           -4.994208            0.063403
 H           -7.153191           -3.752147            1.025482
 H           -6.876487           -1.465043            1.884632
 H           -5.130196           -0.026830           -0.684029
 H           -5.593468            0.909665           -2.916696
 H           -5.942200            2.903673           -4.378774
 H           -5.836242            5.178574           -3.444445
 H           -5.383646            5.538327           -1.016196
 H           -4.923234            4.587052            1.227240
 H           -4.484243            3.660292            3.444751
 H           -4.053300            2.749154            5.689832
 H           -3.739674            0.775542            7.186261
 H           -3.815777           -1.511802            6.273500
 H           -4.221044           -1.901322            3.847131
 H           -2.223058           -0.407274            1.196006
 H            0.168062           -0.497576            0.565708
 H            2.551608           -0.579511           -0.092633

