92

 C           -5.705945            7.439710            1.160712
 C           -5.693841            6.581725            0.109057
 C           -5.542299            5.151923            0.314709
 C           -5.524555            4.259264           -0.745695
 C           -5.377281            2.863349           -0.525932
 C           -5.356297            1.938917           -1.604820
 C           -5.222035            0.578246           -1.377813
 C           -5.199107           -0.381400           -2.467884
 C           -5.088280           -1.711669           -2.228282
 C           -4.990926           -2.207887           -0.869011
 C           -4.913091           -3.675310           -0.670402
 C           -6.052828           -4.414140           -0.606488
 C           -5.999805           -5.846015           -0.411626
 C           -4.811519           -6.483003           -0.283625
 C           -3.556561           -5.746921           -0.342726
 C           -2.344312           -6.386675           -0.211703
 C           -1.109761           -5.663801           -0.276669
 C            0.128835           -6.309661           -0.143964
 C            1.332210           -5.591515           -0.219269
 C            2.602615           -6.240538           -0.096145
 C            3.779905           -5.530097           -0.170432
 C            5.071775           -6.190767           -0.049441
 C            6.225105           -5.484263           -0.118235
 C            6.202805           -4.051527           -0.312427
 C            5.025643           -3.381759           -0.435541
 C            5.026357           -1.912738           -0.637250
 C            5.029299           -1.413999           -1.999189
 C            5.072356           -0.080534           -2.242514
 C            5.114207            0.880368           -1.153802
 C            5.184006            2.244994           -1.385277
 C            5.225033            3.170228           -0.307246
 C            5.309509            4.570471           -0.531615
 C            5.346711            5.463467            0.528346
 C            5.436402            6.897752            0.318294
 C            5.467501            7.755631            1.369841
 C            5.411961            7.260473            2.726503
 C            5.330123            5.928301            2.974106
 C            5.295353            4.967899            1.885114
 C            5.215557            3.603220            2.116139
 C            5.182288            2.678238            1.038302
 C            5.112715            1.276890            1.262848
 C            5.085829            0.383374            0.203193
 C            5.042729           -1.050894            0.416004
 C            3.746758           -4.090037           -0.374195
 C            2.534048           -3.448836           -0.498356
 C            1.296461           -4.168179           -0.427522
 C            0.056115           -3.522004           -0.554843
 C           -1.148244           -4.240673           -0.486124
 C           -2.421561           -3.595837           -0.617660
 C           -3.598848           -4.307126           -0.547256
 C           -4.988983           -1.346043            0.184495
 C           -5.103865            0.084780           -0.024499
 C           -5.113012            0.978385            1.035758
 C           -5.248531            2.375471            0.815637
 C           -5.263932            3.300689            1.894070
 C           -5.406709            4.660847            1.667427
 C           -5.425372            5.621478            2.756844
 C           -5.568255            6.949203            2.513275
 H           -5.818938            8.513116            1.017619
 H           -5.796739            6.936093           -0.915805
 H           -5.624907            4.620698           -1.768754
 H           -5.449945            2.319812           -2.621511
 H           -5.275469            0.006709           -3.483384
 H           -5.069466           -2.441168           -3.037471
 H           -7.034813           -3.949869           -0.697263
 H           -6.945322           -6.385513           -0.371054
 H           -4.756089           -7.560711           -0.133850
 H           -2.301290           -7.464353           -0.056674
 H            0.156869           -7.386110            0.020347
 H            2.616122           -7.319224            0.057339
 H            5.072787           -7.270291            0.097749
 H            7.197705           -5.966994           -0.029771
 H            7.158683           -3.529566           -0.355947
 H            4.998131           -2.144498           -2.807163
 H            5.078480            0.309669           -3.260089
 H            5.210552            2.628928           -2.404796
 H            5.345776            4.935419           -1.557714
 H            5.477819            7.255843           -0.709610
 H            5.535028            8.832399            1.223431
 H            5.438276            7.989023            3.535315
 H            5.288311            5.540296            3.991053
 H            5.176869            3.220726            3.135796
 H            5.084294            0.911547            2.289213
 H            5.030990           -1.413380            1.443841
 H            2.491413           -2.368264           -0.653612
 H            0.027891           -2.442704           -0.709212
 H           -2.435172           -2.514981           -0.776190
 H           -4.908280           -1.706579            1.209998
 H           -5.018857            0.615829            2.059205
 H           -5.160595            2.921648            2.910520
 H           -5.321006            5.237211            3.770708
 H           -5.583366            7.677798            3.322340

