104

 C            8.212373           -2.144624           -5.406629
 C            8.086401           -3.236789           -4.462697
 C            7.538209           -3.034144           -3.240447
 C            7.063030           -1.717426           -2.838939
 C            6.512347           -1.489681           -1.597521
 C            6.050738           -0.187542           -1.218240
 C            5.497640            0.055686            0.048533
 C            5.048579            1.333562            0.417398
 C            5.151420            2.410625           -0.531383
 C            5.705902            2.169456           -1.798409
 C            6.161684            0.893079           -2.161395
 C            6.738858            0.634675           -3.446931
 C            7.183054           -0.623033           -3.788875
 C            7.780558           -0.900666           -5.087764
 C            4.687103            3.712994           -0.160259
 C            4.140405            3.949131            1.080437
 C            3.668649            5.273159            1.462909
 C            3.130352            5.497950            2.685333
 C            3.009097            4.420866            3.645873
 C            3.436914            3.171874            3.342396
 C            4.030773            2.869029            2.046948
 C            4.489208            1.605294            1.717969
 C            4.450181            0.503834            2.713179
 C            5.487201            0.340679            3.578691
 C            5.477204           -0.722438            4.558004
 C            4.430380           -1.577841            4.639480
 C            3.290223           -1.454653            3.742532
 C            2.222307           -2.320369            3.819722
 C            1.108809           -2.210132            2.926267
 C            0.019417           -3.091602            2.997116
 C           -1.059572           -2.980884            2.107002
 C           -2.179395           -3.870946            2.171066
 C           -3.233855           -3.758853            1.292721
 C           -4.376922           -4.657725            1.363927
 C           -5.408583           -4.544123            0.493829
 C           -5.400955           -3.525079           -0.531342
 C           -4.361373           -2.654731           -0.644072
 C           -4.382622           -1.614812           -1.703937
 C           -3.841863           -1.868188           -2.952391
 C           -3.182758           -3.126169           -3.277303
 C           -2.672590           -3.355160           -4.511096
 C           -2.768426           -2.350011           -5.549324
 C           -3.366243           -1.159833           -5.302598
 C           -3.928414           -0.857405           -3.993316
 C           -4.537270            0.349575           -3.735282
 C           -5.090208            0.641969           -2.447592
 C           -5.710114            1.873825           -2.184277
 C           -6.253207            2.159355           -0.922502
 C           -6.898054            3.407712           -0.642610
 C           -7.428014            3.673301            0.600222
 C           -8.094064            4.933629            0.898951
 C           -8.609492            5.177361            2.127936
 C           -8.508539            4.188683            3.182498
 C           -7.899953            2.999097            2.958930
 C           -7.332081            2.678773            1.656755
 C           -6.717247            1.472011            1.407973
 C           -6.164899            1.172410            0.120444
 C           -5.545463           -0.058738           -0.144572
 C           -5.009755           -0.350726           -1.408920
 C           -3.220189           -2.724739            0.269708
 C           -2.153609           -1.856462            0.195400
 C           -1.048554           -1.949690            1.103345
 C            0.038877           -1.063568            1.037806
 C            1.117517           -1.171318            1.930475
 C            2.234087           -0.274254            1.876676
 C            3.295496           -0.394804            2.746061
 H            8.663319           -2.362028           -6.373593
 H            8.445258           -4.216959           -4.772542
 H            7.434744           -3.845101           -2.520442
 H            6.417019           -2.300460           -0.874938
 H            5.414419           -0.769815            0.759577
 H            5.784691            2.988185           -2.512949
 H            6.819664            1.462486           -4.150514
 H            7.867040           -0.070367           -5.787413
 H            4.778486            4.518821           -0.888204
 H            3.767296            6.070609            0.727627
 H            2.774528            6.483530            2.981181
 H            2.562590            4.651393            4.611941
 H            3.344234            2.351999            4.057290
 H            6.351779            1.004482            3.556629
 H            6.337618           -0.805795            5.221139
 H            4.407416           -2.383358            5.372376
 H            2.204851           -3.114165            4.565907
 H            0.011683           -3.874780            3.754203
 H           -2.176834           -4.644655            2.938247
 H           -4.368150           -5.420007            2.141985
 H           -6.269816           -5.209946            0.537012
 H           -6.254623           -3.476852           -1.207668
 H           -3.111056           -3.875596           -2.486631
 H           -2.177498           -4.293122           -4.758012
 H           -2.345264           -2.586133           -6.524334
 H           -3.447303           -0.392278           -6.071070
 H           -4.611542            1.109994           -4.512360
 H           -5.771830            2.621496           -2.974387
 H           -6.960622            4.144919           -1.442268
 H           -8.161571            5.666958            0.096412
 H           -9.111746            6.114979            2.360842
 H           -8.936878            4.438095            4.151968
 H           -7.815214            2.245839            3.741321
 H           -6.639118            0.716480            2.190013
 H           -5.478955           -0.803034            0.652600
 H           -2.130355           -1.071475           -0.564700
 H            0.046239           -0.278711            0.279750
 H            2.224791            0.514135            1.119816

