104

 C          -10.224833            5.357110           -2.187091
 C          -10.866332            4.148875           -2.604773
 C          -10.399914            2.933947           -2.180787
 C           -9.259551            2.854297           -1.311041
 C           -8.757772            1.607200           -0.855003
 C           -7.657484            1.532929           -0.014444
 C           -7.011858            2.751778            0.396083
 C           -7.492260            3.976342           -0.040299
 C           -8.620819            4.055574           -0.897081
 C           -9.136158            5.314345           -1.358553
 C           -5.850756            2.676793            1.276219
 C           -5.381532            1.497254            1.727597
 C           -6.001970            0.228322            1.357010
 C           -5.513754           -0.983286            1.841434
 C           -4.379010           -1.010202            2.799774
 C           -4.621897           -0.985666            4.137965
 C           -3.534757           -1.012367            5.090759
 C           -2.247839           -1.058403            4.671340
 C           -1.921961           -1.085559            3.252607
 C           -0.616048           -1.129883            2.817622
 C           -0.296250           -1.161225            1.422019
 C            1.031942           -1.201552            0.969374
 C            1.329520           -1.234877           -0.401832
 C            2.681307           -1.270413           -0.876542
 C            2.969183           -1.304663           -2.222365
 C            4.340185           -1.336164           -2.735037
 C            5.472578           -1.326128           -1.773636
 C            6.018612           -0.121356           -1.336163
 C            5.470497            1.160568           -1.770781
 C            5.993433            2.332820           -1.361362
 C            7.141977            2.386220           -0.463327
 C            7.674458            3.602426           -0.065582
 C            8.790156            3.660621            0.809624
 C            9.357722            4.910252            1.233330
 C           10.432040            4.932764            2.081159
 C           11.006368            3.712089            2.556744
 C           10.489143            2.505518            2.169687
 C            9.361955            2.447025            1.281352
 C            8.807662            1.208718            0.864003
 C            7.719305            1.154698            0.006622
 C            7.143745           -0.125511           -0.437762
 C            7.667403           -1.336272           -0.014829
 C            7.116770           -2.571579           -0.442846
 C            7.666251           -3.823185           -0.000697
 C            7.117755           -5.007079           -0.412973
 C            5.988810           -5.012118           -1.289846
 C            5.449654           -3.835302           -1.734139
 C            6.002884           -2.574031           -1.325653
 C            4.583842           -1.377384           -4.072592
 C            3.496251           -1.390004           -5.025100
 C            2.208568           -1.357087           -4.606617
 C            1.881741           -1.310794           -3.188580
 C            0.575352           -1.274123           -2.754014
 C            0.255049           -1.232316           -1.358722
 C           -1.073160           -1.189262           -0.906016
 C           -1.370724           -1.151169            0.465139
 C           -2.722045           -1.101214            0.940261
 C           -3.009257           -1.066233            2.286242
 C           -6.110936           -2.220078            1.450822
 C           -5.615884           -3.489831            1.905009
 C           -6.219489           -4.655179            1.517075
 C           -7.359382           -4.628986            0.654848
 C           -7.853070           -3.436931            0.199007
 C           -7.234728           -2.197631            0.580932
 C           -7.728366           -0.954729            0.107690
 C           -7.138507            0.244251            0.473299
 H          -10.622899            6.306083           -2.543265
 H          -11.730003            4.219968           -3.264073
 H          -10.880990            2.008108           -2.492022
 H           -9.262932            0.696076           -1.181745
 H           -7.005485            4.899604            0.273215
 H           -8.640803            6.228137           -1.033989
 H           -5.375222            3.618193            1.553558
 H           -4.510936            1.453354            2.387170
 H           -5.639457           -0.945026            4.527399
 H           -3.791189           -0.993610            6.149395
 H           -1.418570           -1.076847            5.377722
 H            0.205863           -1.142778            3.533334
 H            1.846270           -1.206785            1.694196
 H            3.485561           -1.268826           -0.136883
 H            4.609469            1.132956           -2.443518
 H            5.572482            3.284452           -1.687518
 H            7.239197            4.535004           -0.423858
 H            8.913185            5.833367            0.864768
 H           10.869245            5.874654            2.409229
 H           11.860420            3.767188            3.230040
 H           10.918898            1.570321            2.525124
 H            9.261748            0.287709            1.235229
 H            8.523129           -1.358138            0.663256
 H            8.527040           -3.805230            0.665897
 H            7.526316           -5.961422           -0.084078
 H            5.569399           -5.969956           -1.593796
 H            4.587610           -3.833086           -2.403493
 H            5.601958           -1.401743           -4.461776
 H            3.752841           -1.426346           -6.083275
 H            1.379415           -1.364289           -5.313237
 H           -0.246503           -1.276837           -3.469783
 H           -1.887448           -1.185018           -1.630781
 H           -3.526467           -1.090709            0.200986
 H           -4.745177           -3.503651            2.563064
 H           -5.844154           -5.619765            1.855523
 H           -7.820686           -5.574033            0.372242
 H           -8.721352           -3.402931           -0.457032
 H           -8.593686           -0.961018           -0.558286

