96

 C           -8.400924            3.946557           -0.188452
 C           -8.998182            3.119866           -1.158748
 C           -8.668041            1.768889           -1.235347
 C           -7.714514            1.213649           -0.323898
 C           -7.127717            2.057287            0.650530
 C           -7.479873            3.427620            0.705545
 C           -6.183645            1.476898            1.568821
 C           -5.849856            0.159565            1.497090
 C           -6.400928           -0.732582            0.503566
 C           -7.347489           -0.183698           -0.387620
 C           -7.981582           -1.007637           -1.389633
 C           -7.660955           -2.340106           -1.468625
 C           -6.693497           -2.918427           -0.590846
 C           -6.408080           -4.311526           -0.745652
 C           -5.473006           -4.923800            0.047014
 C           -4.788601           -4.159783            1.022970
 C           -5.052057           -2.812400            1.202849
 C           -4.239499           -2.189708            2.280681
 C           -4.620058           -2.325217            3.580601
 C           -3.803865           -1.800890            4.652173
 C           -2.628078           -1.183089            4.387614
 C           -2.156136           -1.021433            3.019744
 C           -0.956374           -0.404310            2.743436
 C           -0.503464           -0.225564            1.396585
 C            0.714582            0.408835            1.105323
 C            1.137613            0.591343           -0.220402
 C            2.372902            1.248494           -0.531469
 C            2.783943            1.424307           -1.833392
 C            4.036906            2.101001           -2.180835
 C            4.843125            2.728620           -1.101148
 C            5.932698            2.099747           -0.401785
 C            6.619179            2.906865            0.552721
 C            6.221128            4.256805            0.808281
 C            5.161090            4.809714            0.138729
 C            4.472047            4.033492           -0.823962
 C            7.730023            2.394001            1.290270
 C            8.164425            1.104247            1.110696
 C            9.296539            0.577718            1.868727
 C            9.725849           -0.690059            1.707442
 C            9.075692           -1.588610            0.760886
 C            7.964431           -1.102590            0.001174
 C            7.330007           -1.974218           -0.916923
 C            7.800377           -3.300299           -1.075898
 C            8.876849           -3.751386           -0.331333
 C            9.515825           -2.898800            0.588872
 C            6.204990           -1.472224           -1.660823
 C            5.762886           -0.196061           -1.493902
 C            6.387260            0.733736           -0.581411
 C            7.486327            0.252786            0.161835
 C            4.416815            2.240433           -3.480144
 C            3.602114            1.714714           -4.552259
 C            2.429654            1.090171           -4.288752
 C            1.959656            0.921236           -2.921113
 C            0.764315            0.295560           -2.644755
 C            0.313024            0.112377           -1.297839
 C           -0.904121           -0.523657           -1.006441
 C           -1.328508           -0.704015            0.319282
 C           -2.567013           -1.354935            0.630479
 C           -2.982377           -1.522129            1.932265
 C           -6.032858           -2.131993            0.398427
 C           -8.954867           -0.411013           -2.300722
 C           -9.277787            0.896054           -2.231646
 H           -8.671921            5.000852           -0.147667
 H           -9.722054            3.547753           -1.850355
 H           -7.018110            4.065995            1.457169
 H           -5.742625            2.123150            2.328294
 H           -5.142622           -0.224769            2.231056
 H           -8.138066           -2.982866           -2.208779
 H           -6.949048           -4.873416           -1.506396
 H           -5.244320           -5.983285           -0.057428
 H           -4.037412           -4.657111            1.640143
 H           -5.549279           -2.828507            3.847464
 H           -4.168984           -1.925825            5.670882
 H           -1.999528           -0.787746            5.184729
 H           -0.325471           -0.033213            3.550962
 H            1.342426            0.764815            1.922394
 H            2.986823            1.607783            0.298015
 H            6.777945            4.834036            1.545866
 H            4.841609            5.833748            0.325884
 H            3.634634            4.488399           -1.357229
 H            8.227191            3.053096            2.002483
 H            9.778092            1.256432            2.573014
 H           10.568415           -1.085121            2.274992
 H            7.305434           -3.958669           -1.787942
 H            9.238171           -4.772043           -0.450996
 H           10.358573           -3.274882            1.166597
 H            5.710087           -2.146431           -2.360295
 H            4.897923            0.119992           -2.075540
 H            5.343383            2.749200           -3.746284
 H            3.965266            1.844943           -5.571063
 H            1.802370            0.694701           -5.086677
 H            0.135208           -0.078250           -3.452372
 H           -1.531504           -0.880710           -1.823401
 H           -3.181009           -1.714535           -0.198816
 H           -9.407736           -1.070814           -3.040975
 H          -10.002084            1.342874           -2.912683

