96

 C            8.746335            4.046691           -2.911680
 C            7.610878            4.416854           -2.136880
 C            7.086431            3.543718           -1.216191
 C            7.664079            2.251139           -1.015003
 C            8.797446            1.886566           -1.787148
 C            9.325230            2.813892           -2.741538
 C            9.401368            0.603945           -1.608572
 C            8.899446           -0.293923           -0.693135
 C            9.503713           -1.608841           -0.496308
 C            9.011835           -2.485745            0.403472
 C            7.850895           -2.162632            1.226117
 C            7.227126           -0.885945            1.063191
 C            6.099128           -0.552164            1.855890
 C            5.609877           -1.491993            2.793979
 C            6.224772           -2.724982            2.940307
 C            7.344396           -3.064798            2.159384
 C            5.493264            0.753696            1.677086
 C            4.348508            1.153075            2.533580
 C            4.586036            1.815627            3.697632
 C            3.496532            2.245922            4.544586
 C            2.211701            2.001742            4.193473
 C            1.892606            1.291105            2.963634
 C            0.587794            1.035669            2.605498
 C            0.270446            0.332228            1.399567
 C           -1.058374            0.073714            1.027665
 C           -1.358470           -0.612796           -0.158944
 C           -2.710453           -0.875083           -0.557055
 C           -2.997996           -1.542964           -1.726359
 C           -4.366767           -1.815546           -2.167059
 C           -5.506947           -1.327329           -1.351500
 C           -6.016451           -0.081420           -1.577618
 C           -7.147016            0.421460           -0.837959
 C           -7.732785           -0.399378            0.139380
 C           -8.869503            0.070171            0.897363
 C           -9.378134            1.327966            0.662162
 C           -8.798735            2.181839           -0.326252
 C           -9.331877            3.489167           -0.562861
 C           -8.776638            4.308388           -1.513924
 C           -7.661928            3.863154           -2.279179
 C           -7.132919            2.613620           -2.069429
 C           -7.684683            1.736493           -1.084024
 C           -9.449626           -0.817278            1.901713
 C           -8.949781           -2.049648            2.130056
 C           -7.803290           -2.557029            1.383812
 C           -7.203960           -1.719266            0.391545
 C           -6.089092           -2.195060           -0.345190
 C           -5.588290           -3.492272           -0.082089
 C           -6.180274           -4.292677            0.881525
 C           -7.287154           -3.830225            1.616296
 C           -4.607435           -2.495173           -3.320221
 C           -3.518819           -2.959090           -4.150623
 C           -2.232534           -2.722001           -3.799303
 C           -1.909311           -2.005249           -2.573940
 C           -0.603218           -1.764592           -2.209281
 C           -0.283398           -1.063511           -1.002275
 C            1.045734           -0.808579           -0.627883
 C            1.346039           -0.116133            0.555582
 C            2.697152            0.160789            0.947954
 C            2.982407            0.845228            2.108482
 C            5.990488            1.633615            0.759640
 C            7.134723            1.313025           -0.056472
 C            7.745660            0.058452            0.101664
 H            9.142260            4.755908           -3.636698
 H            7.168311            5.400117           -2.287981
 H            6.215752            3.825833           -0.621163
 H           10.194269            2.519814           -3.328294
 H           10.270786            0.352304           -2.214991
 H           10.371761           -1.852012           -1.109726
 H            9.465588           -3.466935            0.546924
 H            4.740902           -1.236094            3.402459
 H            5.842922           -3.443343            3.665422
 H            7.812171           -4.039240            2.291385
 H            5.602025            2.042617            4.021786
 H            3.748782            2.772054            5.464397
 H            1.378805            2.326923            4.815927
 H           -0.236146            1.365800            3.238070
 H           -1.870474            0.413276            1.670854
 H           -3.514694           -0.528633            0.096233
 H           -5.573279            0.566321           -2.338997
 H          -10.234523            1.695872            1.226310
 H          -10.185917            3.818326            0.027303
 H           -9.176543            5.304242           -1.697526
 H           -7.239105            4.528768           -3.030009
 H           -6.278753            2.270058           -2.655992
 H          -10.306890           -0.440272            2.460211
 H           -9.386150           -2.709280            2.880782
 H           -4.728880           -3.857393           -0.646737
 H           -5.790115           -5.291215            1.077457
 H           -7.737021           -4.476417            2.368472
 H           -5.624855           -2.705070           -3.651106
 H           -3.773116           -3.497866           -5.062461
 H           -1.401598           -3.057794           -4.418671
 H            0.219719           -2.106170           -2.836933
 H            1.857722           -1.153341           -1.268319
 H            3.502697           -0.188074            0.297698
 H            5.527696            2.615688            0.629575

