96

 C           -6.084848           -0.315815           -4.979048
 C           -7.242750           -1.096482           -4.702138
 C           -7.794811           -1.097556           -3.444934
 C           -7.226153           -0.315196           -2.391082
 C           -6.072586            0.461527           -2.670720
 C           -5.512338            0.441730           -3.988014
 C           -5.483630            1.261559           -1.643836
 C           -6.017744            1.300016           -0.375583
 C           -7.187545            0.507294           -0.069697
 C           -7.785772           -0.286940           -1.062864
 C           -8.959581           -1.057659           -0.723750
 C           -9.495027           -1.028662            0.525952
 C           -8.900238           -0.224614            1.567007
 C           -9.440603           -0.179534            2.874212
 C           -8.838949            0.595793            3.852707
 C           -7.687524            1.351141            3.563404
 C           -7.138517            1.334757            2.282322
 C           -7.743854            0.537285            1.262539
 C           -5.966864            2.129311            1.942158
 C           -5.445431            2.129224            0.692186
 C           -4.294761            3.012549            0.372561
 C           -4.519254            4.304261            0.010698
 C           -3.419630            5.197065           -0.279496
 C           -2.138422            4.767614           -0.188820
 C           -1.832591            3.395509            0.190207
 C           -0.532546            2.950782            0.283696
 C           -0.232065            1.596295            0.638720
 C            1.089915            1.133865            0.733559
 C            1.368356           -0.198878            1.074536
 C            2.713814           -0.680983            1.179368
 C            2.983622           -1.991809            1.502425
 C            4.346982           -2.510442            1.619179
 C            5.494782           -1.588760            1.420443
 C            6.050581           -0.964882            2.486407
 C            7.210464           -0.096240            2.345257
 C            7.766354            0.096560            1.042819
 C            8.906825            0.924441            0.886563
 C            9.480002            1.543572            2.022864
 C            8.927037            1.348264            3.278406
 C            7.792498            0.532703            3.444604
 C            9.452069            1.111411           -0.436917
 C            8.886601            0.506270           -1.515439
 C            7.727798           -0.346237           -1.384313
 C            7.176355           -0.547061           -0.107281
 C            6.020874           -1.399287            0.062987
 C            5.456532           -2.005936           -1.036377
 C            5.998971           -1.818828           -2.344834
 C            5.407792           -2.466717           -3.476230
 C            5.934318           -2.296892           -4.732288
 C            7.074914           -1.466175           -4.921877
 C            7.656343           -0.830794           -3.852406
 C            7.136068           -0.991149           -2.529748
 C            4.572851           -3.816965            1.921594
 C            3.472956           -4.728789            2.143853
 C            2.190982           -4.299234            2.063665
 C            1.883257           -2.913007            1.741771
 C            0.582740           -2.467010            1.658514
 C            0.280895           -1.107133            1.325323
 C           -1.041151           -0.643062            1.235684
 C           -1.319698            0.691268            0.900433
 C           -2.664468            1.179122            0.810804
 C           -2.933174            2.485590            0.469311
 H           -5.667027           -0.332077           -5.984413
 H           -7.680118           -1.690200           -5.503372
 H           -8.680849           -1.697491           -3.231153
 H           -4.624001            1.041108           -4.185651
 H           -4.594906            1.846844           -1.890664
 H           -9.411064           -1.669782           -1.507630
 H          -10.383170           -1.610034            0.771895
 H          -10.333373           -0.758996            3.102728
 H           -9.257022            0.627867            4.858643
 H           -7.231290            1.951223            4.349207
 H           -5.528705            2.738739            2.734705
 H           -5.531263            4.702083           -0.067929
 H           -3.661648            6.219264           -0.567733
 H           -1.299108            5.430080           -0.397703
 H            0.299994            3.626156            0.086976
 H            1.914585            1.819790            0.537846
 H            3.527609            0.024011            0.993603
 H            5.648035           -1.102193            3.491631
 H           10.359260            2.173708            1.900476
 H            9.370464            1.826681            4.151538
 H            7.374911            0.395596            4.440818
 H           10.328035            1.750568           -0.544573
 H            9.301229            0.652122           -2.515410
 H            4.578280           -2.646379           -0.928049
 H            4.533027           -3.096832           -3.317770
 H            5.492625           -2.789978           -5.596720
 H            7.475297           -1.344832           -5.927280
 H            8.529067           -0.191888           -3.997170
 H            5.585529           -4.211531            2.006753
 H            3.715517           -5.764475            2.378842
 H            1.352416           -4.973453            2.234195
 H           -0.249067           -3.145896            1.845677
 H           -1.865818           -1.329868            1.427977
 H           -3.478771            0.481712            1.020962

