68

 C            9.440766           -1.740706           -0.380740
 C            9.176619           -0.691279           -1.309232
 C            8.150660            0.192340           -1.086220
 C            7.334188            0.073502            0.083728
 C            6.270005            0.990951            0.349704
 C            5.512578            0.863928            1.491175
 C            4.448965            1.846536            1.810936
 C            4.767202            2.985467            2.482378
 C            3.755102            3.966600            2.803285
 C            2.465190            3.772868            2.438901
 C            2.060431            2.572451            1.721623
 C            0.750228            2.366899            1.350399
 C            0.353104            1.184588            0.647196
 C           -0.979512            0.968795            0.262688
 C           -1.355824           -0.195363           -0.424586
 C           -2.713150           -0.429650           -0.819692
 C           -3.077167           -1.574927           -1.491372
 C           -4.455159           -1.844352           -1.901510
 C           -5.520799           -0.866678           -1.573106
 C           -6.236266           -0.969528           -0.402455
 C           -7.305030           -0.060131           -0.127358
 C           -8.080184           -0.156330            1.072439
 C           -9.111284            0.718875            1.304541
 C           -9.422071            1.736862            0.355683
 C           -8.694090            1.853153           -0.801663
 C           -7.614381            0.953630           -1.071126
 C           -6.840785            1.048508           -2.272013
 C           -5.821691            0.165369           -2.516919
 C           -4.772773           -2.979875           -2.578875
 C           -3.760469           -3.959164           -2.904609
 C           -2.470627           -3.766790           -2.539138
 C           -2.065811           -2.568810           -1.817583
 C           -0.755405           -2.363649           -1.446748
 C           -0.357953           -1.182431           -0.741578
 C            0.974601           -0.966846           -0.356684
 C            1.350864            0.197070            0.331407
 C            2.707684            0.431001            0.728456
 C            3.071409            1.576996            1.399380
 C            5.765114           -0.200910            2.412591
 C            6.779705           -1.091515            2.176449
 C            7.596103           -0.972535            1.006392
 C            8.671599           -1.879955            0.747058
 H           10.261252           -2.426379           -0.585884
 H            9.804521           -0.606881           -2.194941
 H            7.941618            0.996751           -1.790074
 H            6.074535            1.792415           -0.362138
 H            5.791200            3.189510            2.794931
 H            4.070385            4.858936            3.342644
 H            1.691590            4.504242            2.669045
 H           -0.015926            3.105044            1.587256
 H           -1.734365            1.717572            0.502352
 H           -3.458829            0.329287           -0.573154
 H           -6.004508           -1.746694            0.325323
 H           -7.836247           -0.937562            1.791050
 H           -9.708530            0.651257            2.212596
 H          -10.245558            2.416540            0.568775
 H           -8.924949            2.626483           -1.532756
 H           -7.081897            1.833332           -2.988031
 H           -5.228149            0.227493           -3.428368
 H           -5.796923           -3.183239           -2.891268
 H           -4.075578           -4.849228           -3.447643
 H           -1.697209           -4.497512           -2.771830
 H            0.010631           -3.101145           -1.685861
 H            1.729395           -1.715509           -0.596779
 H            3.453136           -0.328782            0.483940
 H            5.138621           -0.281492            3.300256
 H            6.984397           -1.901259            2.875888
 H            8.866103           -2.678048            1.461975

