68

 C            9.511076           -0.725392            0.718613
 C            8.875548           -0.536532           -0.482957
 C            7.701995            0.278716           -0.561361
 C            7.020069            0.497990           -1.801021
 C            5.912146            1.303356           -1.855602
 C            5.422538            1.937309           -0.669899
 C            4.253789            2.844366           -0.777463
 C            4.444949            4.165458           -1.037766
 C            3.323798            5.072252           -1.144698
 C            2.055748            4.625252           -0.984027
 C            1.784778            3.222231           -0.705444
 C            0.497623            2.761035           -0.541043
 C            0.230107            1.380261           -0.271646
 C           -1.078528            0.901679           -0.100267
 C           -1.326013           -0.455122            0.160786
 C           -2.657215           -0.957081            0.334347
 C           -2.894785           -2.288932            0.590678
 C           -4.242341           -2.831692            0.767366
 C           -5.410372           -1.923298            0.663939
 C           -5.841569           -1.220453            1.833441
 C           -6.946707           -0.410976            1.784363
 C           -7.683128           -0.255050            0.566429
 C           -8.854249            0.564331            0.495702
 C           -9.542436            0.691933           -0.684764
 C           -9.096355            0.013550           -1.856840
 C           -7.976650           -0.778559           -1.817700
 C           -7.243455           -0.936381           -0.598206
 C           -6.087564           -1.775396           -0.524487
 C           -4.433807           -4.153151            1.025545
 C           -3.313055           -5.060578            1.130800
 C           -2.044935           -4.613755            0.969450
 C           -1.773654           -3.210739            0.691279
 C           -0.486522           -2.749939            0.524834
 C           -0.218848           -1.369255            0.255433
 C            1.089856           -0.890590            0.083840
 C            1.337378            0.466252           -0.176499
 C            2.668702            0.968782           -0.348370
 C            2.906237            2.300952           -0.602805
 C            6.045881            1.726386            0.538379
 C            7.204353            0.891532            0.617981
 C            7.883383            0.670518            1.858871
 C            9.007003           -0.115620            1.904876
 H           10.407573           -1.339439            0.787001
 H            9.252745           -0.998421           -1.394030
 H            7.402619            0.014398           -2.699293
 H            5.387202            1.478585           -2.794249
 H            5.444916            4.577979           -1.171055
 H            3.539105            6.118802           -1.356555
 H            1.200511            5.295599           -1.058224
 H           -0.348825            3.443713           -0.613934
 H           -1.916258            1.595364           -0.171484
 H           -3.486927           -0.250918            0.256156
 H           -5.275310           -1.347895            2.755710
 H           -7.285858            0.124223            2.670763
 H           -9.187362            1.078830            1.395729
 H          -10.437806            1.308331           -0.746655
 H           -9.662456            0.136024           -2.778912
 H           -7.628658           -1.301039           -2.707621
 H           -5.757895           -2.297226           -1.422389
 H           -5.433832           -4.565229            1.159662
 H           -3.528446           -6.107165            1.342246
 H           -1.190056           -5.284678            1.042517
 H            0.359534           -3.433310            0.595743
 H            1.927355           -1.584638            0.154450
 H            3.498306            0.262429           -0.270735
 H            5.671403            2.195426            1.447836
 H            7.491216            1.140634            2.759595
 H            9.532334           -0.285631            2.843441

