80

 C           11.409176            1.648651           -0.664673
 C           10.827709            2.278392           -1.819893
 C            9.629125            1.854817           -2.309789
 C            8.917774            0.764615           -1.681482
 C            7.686067            0.307180           -2.172441
 C            7.015613           -0.757574           -1.552938
 C            5.759253           -1.258240           -2.058529
 C            5.128657           -2.304022           -1.446471
 C            3.861675           -2.857862           -1.982275
 C            3.895851           -3.799677           -2.962556
 C            2.674704           -4.353892           -3.503327
 C            1.467354           -3.942672           -3.047786
 C            1.364217           -2.936454           -2.000372
 C            0.140667           -2.509864           -1.534000
 C            0.039295           -1.525062           -0.499166
 C           -1.204127           -1.082866           -0.020756
 C           -1.288075           -0.119164            0.996231
 C           -2.551162            0.345296            1.488714
 C           -2.629310            1.286664            2.490532
 C           -3.904958            1.781050            3.010372
 C           -5.168364            1.265014            2.429982
 C           -5.753975            1.870972            1.354854
 C           -7.000511            1.377000            0.819285
 C           -7.623688            1.988700           -0.278265
 C           -8.842821            1.504661           -0.774995
 C           -9.504744            2.124095           -1.900869
 C          -10.690608            1.639480           -2.364390
 C          -11.307749            0.498857           -1.742040
 C          -10.716139           -0.113755           -0.678768
 C           -9.458118            0.368252           -0.155492
 C           -8.831533           -0.247683            0.937757
 C           -7.613459            0.236823            1.434321
 C           -6.952763           -0.384101            2.560110
 C           -5.778827            0.108532            3.041125
 C           -3.941442            2.701117            4.010798
 C           -2.720743            3.222209            4.585113
 C           -1.512243            2.807752            4.135313
 C           -1.406426            1.823077            3.067974
 C           -0.182150            1.395531            2.603839
 C           -0.079153            0.419761            1.560612
 C            1.164326           -0.020106            1.079432
 C            1.248506           -0.979756            0.058637
 C            2.510863           -1.432744           -0.446981
 C            2.587752           -2.379221           -1.444088
 C            5.698364           -2.915395           -0.269385
 C            6.880980           -2.467705            0.233716
 C            7.590980           -1.377112           -0.395691
 C            8.821660           -0.919940            0.095556
 C            9.496993            0.138370           -0.529926
 C           10.770345            0.618346           -0.043231
 H           12.368807            2.018068           -0.306521
 H           11.372914            3.097125           -2.287263
 H            9.179001            2.322302           -3.184419
 H            7.245049            0.783598           -3.047696
 H            5.333065           -0.784427           -2.942728
 H            4.841599           -4.160895           -3.366725
 H            2.765199           -5.107195           -4.284929
 H            0.538555           -4.349103           -3.446570
 H           -0.781769           -2.916878           -1.947365
 H           -2.120070           -1.493876           -0.445377
 H           -3.458794           -0.068859            1.044028
 H           -5.297293            2.740334            0.881842
 H           -7.154738            2.851707           -0.750416
 H           -9.027828            2.987451           -2.362776
 H          -11.198406            2.099702           -3.210728
 H          -12.255270            0.144085           -2.144340
 H          -11.173147           -0.977154           -0.197258
 H           -9.298917           -1.112155            1.408367
 H           -7.423584           -1.257000            3.011380
 H           -5.273590           -0.350315            3.890596
 H           -4.888220            3.071812            4.403767
 H           -2.812762            3.955785            5.385145
 H           -0.584314            3.194005            4.555823
 H            0.739689            1.795262            3.025753
 H            2.080192            0.390065            1.505189
 H            3.419097           -1.002378           -0.019099
 H            5.156669           -3.739246            0.194575
 H            7.322486           -2.920758            1.120925
 H            9.261086           -1.394745            0.972332
 H           11.200276            0.131034            0.830791

