100

 C          -15.531589           -0.603618            2.744220
 C          -14.692935            0.421422            2.462341
 C          -13.447710            0.198040            1.738539
 C          -12.588862            1.233287            1.452602
 C          -11.367533            0.990575            0.740759
 N          -10.527489            2.025718            0.469055
 C           -9.382879            1.750780           -0.212079
 C           -8.467576            2.811769           -0.521026
 C           -7.310626            2.554225           -1.217010
 C           -6.368692            3.617709           -1.543950
 C           -5.239979            3.365031           -2.245409
 C           -4.931321            2.013754           -2.689749
 C           -3.688031            1.813145           -3.472832
 C           -3.671037            2.079050           -4.806297
 C           -2.471342            1.879708           -5.589104
 C           -1.336379            1.421169           -5.009448
 C           -1.288891            1.123405           -3.584968
 C           -0.138528            0.658282           -2.987288
 C           -0.090315            0.373545           -1.584702
 C            1.078293           -0.101514           -0.968772
 C            1.111575           -0.374431            0.407402
 C            2.297713           -0.857201            1.050565
 C            2.325043           -1.122813            2.401239
 C            3.522739           -1.611633            3.085434
 C            4.759132           -1.836660            2.298063
 C            4.903250           -3.114084            1.615146
 C            6.019753           -3.391849            0.903690
 C            7.109759           -2.429325            0.799129
 C            8.253535           -2.716444            0.093109
 C            9.315716           -1.755428            0.005239
 N           10.444850           -2.060452           -0.688536
 C           11.426671           -1.120077           -0.746749
 C           12.637700           -1.398836           -1.462837
 C           13.637757           -0.457595           -1.536150
 C           14.875418           -0.718327           -2.260383
 C           15.853269            0.215578           -2.332963
 C           15.695913            1.504574           -1.687647
 C           14.568280            1.801065           -0.998964
 C           13.479937            0.838230           -0.885731
 C           12.330753            1.132194           -0.189400
 C           11.270713            0.170664           -0.093446
 N           10.141000            0.474615            0.602035
 C            9.161893           -0.467753            0.665341
 C            7.956046           -0.198487            1.394767
 C            6.958914           -1.142898            1.470027
 C            5.736237           -0.896847            2.220608
 C            3.510239           -1.861957            4.421852
 C            2.313472           -1.651605            5.206476
 C            1.177260           -1.198101            4.625615
 C            1.126895           -0.911150            3.198938
 C           -0.023222           -0.445961            2.601304
 C           -0.072063           -0.164034            1.198006
 C           -1.240743            0.310261            0.582241
 C           -1.274021            0.582975           -0.794220
 C           -2.460606            1.063709           -1.437363
 C           -2.489010            1.327543           -2.788515
 C           -5.765879            0.982508           -2.398888
 C           -6.996155            1.197881           -1.651542
 C           -7.850480            0.159391           -1.361659
 C           -9.066162            0.395746           -0.637262
 N           -9.903773           -0.640215           -0.360615
 C          -11.049154           -0.365891            0.321207
 C          -11.964521           -1.424682            0.635675
 C          -13.127683           -1.162373            1.321287
 C          -14.071051           -2.222720            1.653293
 C          -15.213241           -1.956374            2.330220
 H          -16.464344           -0.447048            3.285570
 H          -14.918092            1.444227            2.765386
 H          -12.803532            2.261655            1.752981
 H           -8.728472            3.818527           -0.185720
 H           -6.612719            4.623979           -1.200478
 H           -4.529259            4.152970           -2.497313
 H           -4.558891            2.443527           -5.322998
 H           -2.519222            2.108583           -6.653421
 H           -0.425579            1.261217           -5.586056
 H            0.765216            0.497103           -3.575082
 H            1.973517           -0.260310           -1.570071
 H            3.187623           -1.008463            0.436445
 H            4.082703           -3.827246            1.702597
 H            6.143069           -4.344273            0.386308
 H            8.393639           -3.672952           -0.416235
 H           12.729211           -2.377294           -1.940316
 H           14.978565           -1.692584           -2.738688
 H           16.781441            0.030708           -2.873161
 H           16.514588            2.218046           -1.778338
 H           14.435300            2.765292           -0.507712
 H           12.187471            2.094876            0.307146
 H            7.866191            0.774679            1.883920
 H            5.636319            0.068121            2.720010
 H            4.397757           -2.227379            4.938552
 H            2.364401           -1.870243            6.272798
 H            0.267837           -1.032573            5.202862
 H           -0.926072           -0.280848            3.189481
 H           -2.136400            0.468843            1.183121
 H           -3.350074            1.216264           -0.822745
 H           -5.541923           -0.036150           -2.719832
 H           -7.636540           -0.866484           -1.671784
 H          -11.701180           -2.434354            0.311639
 H          -13.818240           -3.234226            1.334488
 H          -15.924259           -2.742402            2.583232

