102

 C            6.786071           -1.468720            1.708470
 C            5.585212           -1.383900            2.341530
 C            5.021900           -0.101133            2.728769
 C            3.734653           -0.115616            3.464626
 C            3.721778            0.039092            4.815736
 C            2.480561            0.002591            5.556534
 C            1.299916           -0.182451            4.919373
 C            1.245392           -0.338971            3.473035
 C            0.047452           -0.509288            2.815718
 C           -0.006528           -0.652433            1.391916
 C           -1.223863           -0.814777            0.712804
 C           -1.260847           -0.955180           -0.683146
 C           -2.497435           -1.116917           -1.388025
 C           -2.530851           -1.254494           -2.757470
 C           -3.779909           -1.415824           -3.502861
 C           -5.066185           -1.419483           -2.764709
 C           -5.649829           -0.253867           -2.357630
 C           -6.911570           -0.313778           -1.680852
 C           -7.769796            0.650528           -1.174303
 C           -7.738709            2.097483           -1.055781
 C           -8.930088            2.843007           -1.100010
 C           -8.884356            4.234410           -0.995084
 C           -7.657564            4.888680           -0.840858
 C           -6.472155            4.148024           -0.788229
 C           -6.506873            2.756296           -0.892913
 O           -8.918915            0.032650           -0.656932
 C           -8.761069           -1.349900           -0.829730
 C           -9.864556           -2.166988           -0.355853
 C           -9.612728           -3.458400            0.140552
 C          -10.674797           -4.258337            0.566321
 C          -11.987106           -3.778072            0.506406
 C          -12.238295           -2.488375            0.026412
 C          -11.183136           -1.680423           -0.401527
 C           -7.548255           -1.605604           -1.451053
 C           -6.889987           -2.804934           -1.882852
 C           -5.688746           -2.708344           -2.513943
 C           -3.770008           -1.564902           -4.854571
 C           -2.527470           -1.561222           -5.593976
 C           -1.342709           -1.408085           -4.955515
 C           -1.285774           -1.246313           -3.509877
 C           -0.085781           -1.090040           -2.852154
 C           -0.030915           -0.936035           -1.429492
 C            1.186239           -0.768590           -0.750400
 C            1.223135           -0.624726            0.645208
 C            2.458123           -0.448455            1.350481
 C            2.489580           -0.307261            2.719626
 C            5.659700            1.072740            2.446702
 C            6.921597            1.026394            1.768753
 C            7.819472            1.998629            1.355327
 C            7.867083            3.448664            1.418722
 C            6.675773            4.191657            1.342956
 C            6.719411            5.584088            1.437385
 C            7.943111            6.241779            1.600953
 C            9.130163            5.504389            1.665800
 C            9.097470            4.111946            1.573359
 O            8.938101            1.387374            0.767825
 C            8.729016            0.001763            0.819107
 C            9.797858           -0.810355            0.263902
 C           10.069077           -2.073376            0.820054
 C           11.083997           -2.866455            0.281819
 C           11.834899           -2.407261           -0.805414
 C           11.573034           -1.147322           -1.353646
 C           10.559470           -0.346655           -0.823006
 C            7.505985           -0.262552            1.415923
 H            7.218705           -2.421200            1.408370
 H            5.007241           -2.276026            2.582743
 H            4.644113            0.188878            5.376803
 H            2.534132            0.125665            6.637507
 H            0.357031           -0.218537            5.463585
 H           -0.890036           -0.537114            3.370818
 H           -2.155814           -0.831560            1.277875
 H           -3.421564           -1.129986           -0.805895
 H           -5.197335            0.718377           -2.545168
 H           -9.883722            2.327606           -1.213285
 H           -9.807245            4.811222           -1.034373
 H           -7.625294            5.973764           -0.758616
 H           -5.517644            4.657115           -0.660504
 H           -5.583592            2.180411           -0.836636
 H           -8.589996           -3.828263            0.203063
 H          -10.478746           -5.258636            0.949658
 H          -12.812324           -4.406995            0.835885
 H          -13.260037           -2.113252           -0.015814
 H          -11.372504           -0.672399           -0.770868
 H           -7.374667           -3.761982           -1.699717
 H           -5.155199           -3.595497           -2.854376
 H           -4.695638           -1.686883           -5.416955
 H           -2.582931           -1.684007           -6.674884
 H           -0.398576           -1.401809           -5.498686
 H            0.852390           -1.081977           -3.406697
 H            2.117661           -0.749180           -1.316301
 H            3.382209           -0.426774            0.768365
 H            5.247774            2.039645            2.729436
 H            5.722946            3.681907            1.203094
 H            5.795809            6.158887            1.383293
 H            7.971302            7.327429            1.677651
 H           10.082742            6.016567            1.793882
 H           10.018881            3.531017            1.624251
 H            9.494823           -2.425831            1.676153
 H           11.292682           -3.844480            0.713156
 H           12.623921           -3.030263           -1.223287
 H           12.159887           -0.789483           -2.198558
 H           10.352736            0.637371           -1.244918

