96

 C          -14.903299            2.104660            2.489078
 C          -14.232713            3.361230            2.780837
 C          -12.993270            3.625376            2.309662
 C          -12.291552            2.640132            1.491408
 N          -11.072276            2.896860            1.035020
 C          -10.441152            1.918782            0.262139
 C           -9.148776            2.162780           -0.228072
 C           -8.510819            1.179669           -0.999886
 N           -7.224735            1.425787           -1.487118
 C           -6.641641            0.481036           -2.214188
 C           -5.305177            0.693665           -2.754213
 C           -4.707825           -0.266351           -3.503189
 C           -3.361796           -0.057352           -4.089274
 C           -3.239549            0.438377           -5.349476
 C           -1.936289            0.663558           -5.934264
 C           -0.808879            0.388667           -5.236009
 C           -0.875035           -0.147018           -3.883754
 C            0.266825           -0.427990           -3.166979
 C            0.199835           -0.965775           -1.841477
 C            1.358600           -1.254968           -1.104414
 C            1.277323           -1.786839            0.191649
 C            2.453208           -2.080232            0.955481
 C            2.372025           -2.607478            2.224661
 C            3.554971           -2.913329            3.030121
 C            4.897190           -2.611883            2.476949
 C            5.374967           -1.342594            2.440204
 C            6.699261           -1.068647            1.898665
 N            7.159407            0.175824            1.859550
 C            8.433548            0.388558            1.327923
 C            8.941016            1.695978            1.270743
 C           10.218077            1.913445            0.731098
 N           10.717982            3.216926            0.667011
 C           11.924605            3.397020            0.145395
 C           12.490939            4.739598            0.046949
 C           13.717111            4.924213           -0.492091
 C           14.506645            3.805866           -0.981715
 C           14.047537            2.535729           -0.917457
 C           12.729661            2.257756           -0.353393
 N           12.276538            1.011993           -0.298849
 C           11.006237            0.798970            0.242629
 C           10.500625           -0.508801            0.303761
 C            9.221485           -0.725585            0.838686
 N            8.717299           -2.027744            0.890386
 C            7.504283           -2.206103            1.396935
 C            6.927093           -3.545802            1.468844
 C            5.690709           -3.732059            1.980485
 C            3.435224           -3.459387            4.269643
 C            2.133496           -3.738722            4.834066
 C            1.004265           -3.460650            4.139837
 C            1.066639           -2.883099            2.804688
 C           -0.076828           -2.600504            2.090781
 C           -0.013535           -2.045563            0.771858
 C           -1.172394           -1.752838            0.036004
 C           -1.091561           -1.215008           -1.258045
 C           -2.266238           -0.905666           -2.017875
 C           -2.181458           -0.386557           -3.290410
 C           -5.373514           -1.536290           -3.776567
 C           -6.613328           -1.794970           -3.306611
 C           -7.322759           -0.802078           -2.503802
 N           -8.544109           -1.056453           -2.053213
 C           -9.179097           -0.074035           -1.288413
 C          -10.472621           -0.316462           -0.801921
 C          -11.110376            0.666095           -0.028388
 N          -12.395796            0.418889            0.459806
 C          -12.975179            1.360058            1.194124
 C          -14.315194            1.149119            1.734372
 H          -15.902650            1.963199            2.903951
 H          -14.771543            4.084360            3.395884
 H          -12.469163            4.562318            2.513201
 H           -8.643082            3.110061           -0.010050
 H           -4.824254            1.650478           -2.530752
 H           -4.115119            0.684673           -5.950685
 H           -1.900405            1.062490           -6.947471
 H            0.180092            0.557950           -5.661989
 H            1.251116           -0.245086           -3.598899
 H            2.336893           -1.062836           -1.545596
 H            3.421981           -1.870268            0.498122
 H            4.800520           -0.487032            2.807767
 H            8.345378            2.537424            1.641882
 H           11.879122            5.562853            0.423535
 H           14.155171            5.920449           -0.576542
 H           15.487025            4.032989           -1.403832
 H           14.622156            1.678218           -1.275742
 H           11.096776           -1.351057           -0.063836
 H            7.541046           -4.368023            1.091927
 H            5.241054           -4.725871            2.039220
 H            4.311437           -3.693003            4.874980
 H            2.099954           -4.173504            5.832503
 H            0.016688           -3.660530            4.555602
 H           -1.059982           -2.796831            2.519286
 H           -2.150709           -1.945891            0.476518
 H           -3.237083           -1.091974           -1.555017
 H           -4.826406           -2.266190           -4.377727
 H           -7.134723           -2.736049           -3.500167
 H          -10.978866           -1.262457           -1.022491
 H          -14.798576            0.197957            1.499031

