100

 C           15.050081            1.989243           -2.191981
 C           13.898730            1.320131           -2.438872
 C           12.977950            0.996906           -1.361796
 C           11.793311            0.327693           -1.555624
 C           10.929489            0.048413           -0.444710
 C            9.709349           -0.622137           -0.586947
 C            8.898958           -0.866173            0.537247
 N            7.692035           -1.538052            0.348508
 C            6.913772           -1.777258            1.402309
 C            5.655870           -2.488346            1.197712
 C            4.836656           -2.755766            2.245986
 C            3.566101           -3.498910            2.064418
 C            3.494368           -4.816404            2.392968
 C            2.267645           -5.560532            2.213042
 C            1.163741           -4.962420            1.705200
 C            1.177364           -3.555157            1.332282
 C            0.060376           -2.940257            0.811534
 C            0.069478           -1.551347            0.462660
 C           -1.063120           -0.914350           -0.068379
 C           -1.039247            0.450122           -0.396661
 C           -2.189249            1.115087           -0.933963
 C           -2.157315            2.452746           -1.258941
 C           -3.315758            3.161438           -1.802373
 C           -4.583843            2.420269           -2.007431
 C           -4.742450            1.679113           -3.251449
 C           -5.892778            1.020211           -3.523554
 C           -7.001226            1.026098           -2.583251
 C           -8.196197            0.390420           -2.819555
 C           -9.247253            0.437528           -1.844010
 C          -10.484962           -0.185712           -2.037662
 C          -11.478178           -0.113723           -1.043257
 N          -12.693700           -0.755160           -1.277226
 C          -13.641431           -0.701760           -0.343700
 C          -14.911147           -1.383020           -0.592034
 C          -15.896315           -1.354894            0.334479
 C          -15.724703           -0.649438            1.590930
 C          -14.570405            0.000515            1.873359
 C          -13.467922            0.008245            0.926428
 C          -12.272840            0.644777            1.163256
 C          -11.226216            0.606734            0.183110
 C           -9.989351            1.233650            0.374788
 C           -8.997011            1.162214           -0.619792
 N           -7.783140            1.808703           -0.389191
 C           -6.833444            1.750785           -1.320440
 C           -5.573864            2.448202           -1.080416
 C           -3.243827            4.482265           -2.117375
 C           -2.017879            5.225459           -1.927924
 C           -0.916274            4.622344           -1.421366
 C           -0.933345            3.212857           -1.057356
 C            0.180164            2.595649           -0.533048
 C            0.167021            1.206193           -0.187887
 C            1.299348            0.569746            0.343105
 C            1.275442           -0.794634            0.669827
 C            2.428233           -1.456263            1.203963
 C            2.402360           -2.794564            1.525422
 C            5.185230           -2.331438            3.595257
 C            6.340454           -1.669292            3.837631
 C            7.267377           -1.360004            2.761792
 C            8.456021           -0.698126            2.955929
 C            9.322855           -0.425812            1.845919
 C           10.544472            0.242140            1.988960
 C           11.353450            0.488077            0.864423
 N           12.558423            1.164024            1.053713
 C           13.332339            1.410124           -0.001034
 C           14.590557            2.126991            0.202977
 C           15.400698            2.400374           -0.845160
 H           15.746944            2.239034           -2.991479
 H           13.625062            1.004535           -3.445379
 H           11.485837           -0.000911           -2.549674
 H            9.370304           -0.963449           -1.567843
 H            5.417697           -2.791427            0.174754
 H            4.356660           -5.349047            2.793855
 H            2.268950           -6.611811            2.498591
 H            0.232770           -5.510455            1.563263
 H           -0.860204           -3.502777            0.656498
 H           -1.975721           -1.488442           -0.228040
 H           -3.099104            0.528535           -1.076602
 H           -3.902839            1.682148           -3.947592
 H           -6.027452            0.467048           -4.453611
 H           -8.371213           -0.158982           -3.745762
 H          -10.696118           -0.733723           -2.958789
 H          -15.012634           -1.903545           -1.546365
 H          -16.847847           -1.859932            0.166602
 H          -16.557685           -0.663343            2.293129
 H          -14.429879            0.535372            2.812406
 H          -12.095382            1.186279            2.093865
 H           -9.778489            1.784457            1.294487
 H           -5.477688            2.987821           -0.134782
 H           -4.104332            5.017290           -2.519277
 H           -2.017571            6.278553           -2.206444
 H            0.015155            5.167962           -1.272550
 H            1.100616            3.156699           -0.370901
 H            2.212002            1.143978            0.503538
 H            3.335100           -0.864840            1.347504
 H            4.479904           -2.567172            4.392874
 H            6.614081           -1.347820            4.843133
 H            8.763858           -0.367824            3.949221
 H           10.884160            0.580283            2.970687
 H           14.829263            2.422001            1.226736
 H           16.340470            2.936766           -0.711129

