100

 C           12.383913           -3.196275            1.347745
 C           11.539344           -3.362875            2.516217
 C           10.404919           -2.642168            2.667840
 C           10.000449           -1.674471            1.648379
 N            8.873920           -0.989079            1.828573
 C            8.482345           -0.065579            0.859715
 C            7.286988            0.647864            1.063664
 C            6.856507            1.585851            0.117640
 C            5.651194            2.345871            0.277846
 C            5.264094            3.249573           -0.683405
 C            6.109513            3.405467           -1.869933
 N            7.239744            2.723542           -2.047585
 C            7.641653            1.811649           -1.073045
 C            8.838489            1.100006           -1.275568
 C            9.270821            0.165007           -0.328464
 C           10.479154           -0.592401           -0.486085
 C           10.856270           -1.503724            0.470689
 C           12.061287           -2.310818            0.374843
 C            5.693764            4.344287           -2.909805
 C            4.550886            5.054725           -2.772692
 C            3.720010            4.919566           -1.594568
 C            4.057083            4.066075           -0.591590
 C            3.215814            3.965420            0.626848
 C            3.378723            4.859246            1.638674
 C            2.552915            4.797354            2.824083
 C            1.594267            3.849042            2.949927
 C            1.373824            2.861318            1.903268
 C            0.400524            1.894340            2.022733
 C            0.184214            0.923998            0.991977
 C           -0.811054           -0.059782            1.102294
 C           -1.011581           -1.004419            0.083936
 C           -2.016477           -2.020556            0.188300
 C           -2.208561           -2.945923           -0.812931
 C           -3.214382           -4.005119           -0.725640
 C           -4.029739           -4.124396            0.508633
 C           -3.665697           -4.988175            1.493297
 C           -4.462144           -5.133087            2.693737
 C           -5.597270           -4.419376            2.872162
 C           -6.042548           -3.472261            1.852288
 N           -7.165388           -2.789427            2.069737
 C           -7.598687           -1.874703            1.111636
 C           -8.787186           -1.162042            1.356479
 C           -9.252753           -0.227954            0.424599
 C          -10.455523            0.528738            0.623913
 C          -10.868169            1.436673           -0.321211
 C          -12.071243            2.240947           -0.185025
 C          -12.431220            3.121679           -1.149008
 C          -11.629724            3.286279           -2.347770
 C          -10.499013            2.568630           -2.536991
 C          -10.055322            1.605740           -1.529304
 N           -8.934657            0.922113           -1.747672
 C           -8.507330            0.001148           -0.791394
 C           -7.319688           -0.711784           -1.036713
 C           -6.855405           -1.648743           -0.105536
 C           -5.655548           -2.407368           -0.306833
 C           -5.235462           -3.311650            0.640030
 C           -3.392224           -4.885746           -1.746202
 C           -2.582563           -4.809493           -2.942017
 C           -1.621340           -3.863610           -3.066973
 C           -1.386178           -2.888550           -2.011498
 C           -0.410794           -1.923544           -2.129913
 C           -0.187221           -0.959458           -1.094585
 C            0.809899            0.022534           -1.203682
 C            1.011619            0.966281           -0.184484
 C            2.019383            1.979802           -0.286810
 C            2.206474            2.909623            0.711402
 H           13.282542           -3.809298            1.285840
 H           11.855184           -4.090047            3.264913
 H            9.750804           -2.744310            3.536218
 H            6.701406            0.457238            1.966669
 H            5.050045            2.187734            1.177919
 H            9.419758            1.287836           -2.180970
 H           11.083185           -0.426485           -1.379409
 H           12.687467           -2.174058           -0.506500
 H            6.344237            4.433864           -3.782206
 H            4.220553            5.754490           -3.541555
 H            2.817038            5.528691           -1.539093
 H            4.130731            5.646846            1.583933
 H            2.729669            5.540205            3.601202
 H            0.957691            3.795641            3.832842
 H           -0.230249            1.849625            2.910806
 H           -1.439209           -0.089750            1.992891
 H           -2.629715           -2.043876            1.091692
 H           -2.765013           -5.597113            1.406709
 H           -4.111605           -5.841686            3.445399
 H           -6.220531           -4.513273            3.763745
 H           -9.336154           -1.349321            2.281907
 H          -11.027015            0.364199            1.538607
 H          -12.665239            2.105674            0.718527
 H          -13.329436            3.731654           -1.057520
 H          -11.975096            4.008553           -3.088059
 H           -9.877025            2.669194           -3.428861
 H           -6.766955           -0.522330           -1.960461
 H           -5.085393           -2.248241           -1.226685
 H           -4.143146           -5.674203           -1.690623
 H           -2.772199           -5.540721           -3.726971
 H           -0.994736           -3.801709           -3.956450
 H            0.214610           -1.874208           -3.021502
 H            1.437585            0.052794           -2.094559
 H            2.638496            1.998060           -1.186268

