100

 C            6.374188           -5.698142            1.517636
 C            7.424829           -5.228360            2.401104
 C            7.873708           -3.953427            2.338306
 C            7.300497           -3.015821            1.374903
 N            7.763787           -1.767016            1.341663
 C            7.217391           -0.866781            0.429094
 C            7.728539            0.443803            0.411346
 C            7.213420            1.386089           -0.482775
 C            7.703641            2.734709           -0.534664
 C            7.171082            3.633423           -1.425701
 C            7.610087            5.014969           -1.532571
 C            7.041762            5.855775           -2.429449
 C            5.981621            5.403665           -3.312034
 C            5.529383            4.129986           -3.265884
 C            6.100910            3.175560           -2.316169
 N            5.626566            1.933471           -2.298545
 C            6.156487            1.014018           -1.394547
 C            5.642537           -0.304103           -1.384719
 C            4.586865           -0.698245           -2.351367
 C            4.940395           -1.117439           -3.596052
 C            3.936995           -1.517264           -4.556928
 C            2.621014           -1.482779           -4.238964
 C            2.178337           -1.036138           -2.925831
 C            0.841035           -0.987948           -2.599357
 C            0.402630           -0.531920           -1.314385
 C           -0.959089           -0.464520           -0.978617
 C           -1.374470            0.000003            0.279382
 C           -2.761568            0.090894            0.630400
 C           -3.163315            0.555092            1.863075
 C           -4.570985            0.669682            2.249949
 C           -5.633031            0.303296            1.279999
 C           -6.309155           -0.933901            1.403099
 N           -5.928999           -1.808415            2.420230
 C           -6.556877           -2.973872            2.545219
 C           -6.141615           -3.882377            3.613795
 C           -6.754585           -5.077328            3.772997
 C           -7.835862           -5.488657            2.896121
 C           -8.262608           -4.687876            1.890669
 C           -7.647642           -3.391193            1.659951
 C           -8.033014           -2.536268            0.657115
 C           -7.375109           -1.271151            0.488287
 C           -7.740618           -0.375120           -0.519645
 C           -7.070054            0.854821           -0.648873
 N           -7.474540            1.712702           -1.669714
 C           -6.861917            2.887835           -1.808009
 C           -7.288161            3.781537           -2.882800
 C           -6.685078            4.980717           -3.053936
 C           -5.611373            5.412237           -2.178745
 C           -5.178465            4.624027           -1.165350
 C           -5.775426            3.320893           -0.928632
 C           -5.369018            2.475493            0.076875
 C           -6.002510            1.202015            0.258584
 C           -4.921842            1.113530            3.487253
 C           -3.916255            1.497371            4.452238
 C           -2.599406            1.422788            4.145371
 C           -2.159692            0.950056            2.840579
 C           -0.821637            0.870526            2.523886
 C           -0.384786            0.402340            1.243192
 C            0.977086            0.329568            0.909696
 C            1.391768           -0.126021           -0.351321
 C            2.778500           -0.193006           -0.708922
 C            3.180141           -0.629337           -1.951387
 C            6.161652           -1.249706           -0.477758
 C            5.691832           -2.602835           -0.412144
 C            6.237040           -3.488329            0.487570
 C            5.808811           -4.871629            0.605083
 H            6.060072           -6.736399            1.617046
 H            7.838048           -5.940642            3.116131
 H            8.663974           -3.571478            2.987502
 H            8.531492            0.707334            1.104066
 H            8.504099            3.021648            0.149001
 H            8.407635            5.341334           -0.865399
 H            7.359661            6.894277           -2.517535
 H            5.564991            6.128626           -4.011809
 H            4.733945            3.758628           -3.915830
 H            5.984334           -1.153259           -3.906496
 H            4.280143           -1.839934           -5.539029
 H            1.854285           -1.779141           -4.953570
 H            0.083295           -1.293351           -3.320568
 H           -1.706583           -0.775428           -1.708435
 H           -3.498583           -0.222567           -0.111315
 H           -5.325098           -3.544193            4.255676
 H           -6.456034           -5.767671            4.562440
 H           -8.287073           -6.463517            3.078594
 H           -9.073109           -4.984521            1.225372
 H           -8.840740           -2.795584           -0.028887
 H           -8.548786           -0.612081           -1.215709
 H           -8.100410            3.430876           -3.522231
 H           -6.987073            5.658231           -3.853334
 H           -5.169740            6.389745           -2.368270
 H           -4.374308            4.936114           -0.498383
 H           -4.556500            2.755395            0.754099
 H           -5.967303            1.182012            3.787925
 H           -4.258526            1.842369            5.427003
 H           -1.830092            1.707338            4.862134
 H           -0.062269            1.163723            3.248647
 H            1.724762            0.634842            1.641805
 H            3.514467            0.122249            0.033110
 H            4.891536           -2.910082           -1.091694
 H            5.019655           -5.211158           -0.066129

