96

 C           -9.568217           -3.002332            1.986695
 C           -8.525780           -2.811390            2.858580
 C           -7.425944           -1.974130            2.493727
 C           -7.431683           -1.307801            1.241020
 C           -8.495260           -1.585504            0.315792
 C           -9.544645           -2.399803            0.701776
 C           -8.418125           -1.013078           -1.038713
 C           -9.285400           -1.421727           -2.036961
 C           -9.241873           -0.841762           -3.330247
 C           -8.350654            0.166007           -3.602147
 C           -7.447018            0.617371           -2.591983
 C           -7.432476           -0.002472           -1.316738
 C           -6.465300            0.410311           -0.321897
 C           -5.698058            1.537222           -0.580681
 C           -4.808900            2.219904            0.391638
 C           -5.337385            3.019747            1.356501
 C           -4.481926            3.763417            2.254589
 C           -3.133587            3.686919            2.151728
 C           -2.505281            2.837975            1.149764
 C           -1.135528            2.732472            1.051424
 C           -0.522651            1.868843            0.087156
 C            0.871621            1.741591           -0.011015
 C            1.454086            0.866151           -0.940443
 C            2.875172            0.716518           -1.039706
 C            3.443495           -0.167735           -1.928558
 C            4.893519           -0.360168           -2.025436
 C            5.789544            0.514983           -1.229452
 C            6.490108            0.137851           -0.092555
 C            6.297838           -1.147407            0.611737
 C            5.181019           -1.940479            0.432879
 C            5.073647           -3.224221            1.035853
 C            6.079303           -3.706515            1.831239
 C            7.217204           -2.886717            2.113089
 C            7.305660           -1.589174            1.545628
 C            8.386732           -0.732180            1.947446
 C            9.373611           -1.220075            2.785015
 C            9.315594           -2.545461            3.289361
 C            8.254191           -3.357313            2.977356
 C            8.394494            0.661997            1.473803
 C            9.280170            1.588239            1.997139
 C            9.321232            2.920206            1.512722
 C            8.494320            3.304110            0.486820
 C            7.572538            2.371665           -0.079787
 C            7.474490            1.056031            0.440298
 C            6.759244            2.751375           -1.194082
 C            5.922521            1.837128           -1.767565
 C            5.417406           -1.275577           -2.884039
 C            4.559909           -2.071420           -3.734110
 C            3.214465           -1.919389           -3.700402
 C            2.590149           -0.967912           -2.792451
 C            1.221980           -0.823596           -2.729303
 C            0.611167            0.087752           -1.808527
 C           -0.782401            0.229687           -1.723904
 C           -1.364956            1.103883           -0.793247
 C           -2.786299            1.246374           -0.688105
 C           -3.356933            2.079916            0.247114
 C           -5.747779            2.178591           -1.861866
 C           -6.567536            1.715827           -2.851315
 C           -6.360525           -0.398944            0.910427
 C           -5.268562           -0.341038            1.754656
 C           -5.243985           -1.045164            2.990265
 C           -6.308349           -1.818115            3.372895
 H          -10.418966           -3.625810            2.258667
 H           -8.516000           -3.291809            3.835616
 H          -10.372326           -2.602498            0.021095
 H          -10.027022           -2.198338           -1.844485
 H           -9.931712           -1.201807           -4.092490
 H           -8.319326            0.638108           -4.582738
 H           -6.415973            3.125134            1.475481
 H           -4.963379            4.386834            3.007469
 H           -2.477965            4.251229            2.813919
 H           -0.486394            3.302488            1.716077
 H            1.512489            2.326711            0.648940
 H            3.501506            1.322636           -0.380728
 H            4.336216           -1.614085           -0.173594
 H            4.180077           -3.816353            0.838213
 H            6.025303           -4.701169            2.269905
 H           10.213557           -0.590814            3.082140
 H           10.119120           -2.897263            3.935218
 H            8.181492           -4.366125            3.380544
 H            9.971679            1.306912            2.792760
 H           10.023917            3.622157            1.960178
 H            8.528734            4.316252            0.087012
 H            6.836646            3.766358           -1.581365
 H            5.328198            2.096015           -2.646419
 H            6.494068           -1.430188           -2.958151
 H            5.037435           -2.788349           -4.401314
 H            2.557996           -2.503419           -4.344251
 H            0.571936           -1.410648           -3.377887
 H           -1.423131           -0.352406           -2.386476
 H           -3.411181            0.666165           -1.371117
 H           -5.103911            3.044975           -2.027725
 H           -6.581721            2.180929           -3.836031
 H           -4.381954            0.242606            1.506423
 H           -4.365676           -0.942679            3.627732
 H           -6.316947           -2.333413            4.331585

