96

 C          -11.254634            1.284308           -1.888793
 C          -10.703667            0.636664           -2.965282
 C           -9.506578           -0.130037           -2.808208
 C           -8.888189           -0.214836           -1.533359
 C           -9.483658            0.471517           -0.417498
 C          -10.642859            1.200532           -0.610271
 C           -8.844087            0.378709            0.907773
 C           -9.382040            1.010851            2.014165
 C           -8.761485            0.917480            3.287850
 C           -7.607172            0.193241            3.445851
 C           -7.020586           -0.478288            2.327317
 C           -7.636223           -0.389702            1.051585
 C           -7.039165           -1.075797           -0.064132
 C           -5.882451           -1.807708            0.126127
 C           -5.276244           -1.901837            1.411490
 C           -4.065659           -2.743376            1.580003
 C           -4.197912           -4.056859            1.906672
 C           -3.036005           -4.894185            2.104944
 C           -1.787593           -4.386078            1.971976
 C           -1.580179           -2.990782            1.611937
 C           -0.313480           -2.471387            1.461611
 C           -0.108595           -1.101376            1.099733
 C            1.179381           -0.566679            0.938038
 C            1.365715            0.777972            0.581557
 C            2.674218            1.335845            0.406798
 C            2.851312            2.656449            0.059659
 C            4.173439            3.255823           -0.123558
 C            5.384843            2.424961            0.085664
 C            6.081952            2.492035            1.269854
 C            7.273204            1.723627            1.446254
 C            7.737335            0.889799            0.395781
 C            8.945810            0.131993            0.583869
 C            9.631072            0.233534            1.781086
 C            9.160527            1.068632            2.828554
 C            8.008479            1.796609            2.671101
 C            9.428022           -0.734747           -0.507054
 C           10.581234           -1.486632           -0.375748
 C           11.040549           -2.318583           -1.430576
 C           10.343942           -2.391609           -2.610075
 C            9.147096           -1.628976           -2.787265
 C            8.681333           -0.797236           -1.735550
 C            7.475385           -0.035286           -1.925263
 C            6.799752           -0.123783           -3.128452
 C            7.272118           -0.955980           -4.177469
 C            8.416582           -1.694696           -4.015135
 C            6.989165            0.827681           -0.832475
 C            5.837267            1.579062           -0.967306
 C            4.304909            4.563518           -0.473336
 C            3.142962            5.401799           -0.667180
 C            1.895109            4.902336           -0.500897
 C            1.688005            3.508640           -0.134386
 C            0.421531            2.992118            0.026156
 C            0.216345            1.620979            0.383983
 C           -1.071615            1.085735            0.543118
 C           -1.258101           -0.260121            0.895333
 C           -2.566783           -0.821487            1.056400
 C           -2.743567           -2.141881            1.404954
 C           -5.826706           -1.245927            2.488232
 C           -7.683195           -0.987959           -1.388024
 C           -7.156481           -1.635954           -2.490184
 C           -7.781255           -1.549215           -3.762277
 C           -8.928127           -0.813932           -3.923244
 H          -12.166909            1.870420           -1.994328
 H          -11.164751            0.694214           -3.949849
 H          -11.112967            1.727957            0.221239
 H          -10.299136            1.595902            1.928923
 H           -9.221259            1.429852            4.132673
 H           -7.121361            0.113888            4.417203
 H           -5.408214           -2.334635           -0.704699
 H           -5.180278           -4.512032            2.033803
 H           -3.204984           -5.937882            2.367125
 H           -0.901919           -5.001032            2.127852
 H            0.563849           -3.099813            1.614774
 H            2.048749           -1.206507            1.090890
 H            3.534994            0.680119            0.556274
 H            5.738801            3.130500            2.083433
 H           10.551447           -0.329395            1.944235
 H            9.732359            1.118618            3.754938
 H            7.636334            2.439827            3.467061
 H           11.164296           -1.454226            0.545992
 H           11.953945           -2.893735           -1.282791
 H           10.687483           -3.026210           -3.425273
 H            5.884907            0.447846           -3.296045
 H            6.707787           -0.994283           -5.108743
 H            8.786590           -2.337987           -4.811965
 H            5.249630            1.546522           -1.887432
 H            5.286858            5.015453           -0.614711
 H            3.311640            6.440990           -0.946921
 H            1.009643            5.522549           -0.635502
 H           -0.455780            3.622632           -0.118352
 H           -1.941127            1.725202            0.389766
 H           -3.428246           -0.170241            0.892355
 H           -5.365263           -1.306914            3.473549
 H           -6.245154           -2.230549           -2.402861
 H           -7.331622           -2.077211           -4.602668
 H           -9.414744           -0.739260           -4.894469

