102

 C           -6.825308           -0.406651           -5.854814
 C           -5.702516           -1.313655           -5.701927
 C           -5.260618           -1.678941           -4.477044
 C           -5.912460           -1.165704           -3.272335
 N           -5.459170           -1.560848           -2.086068
 C           -6.063580           -1.074021           -0.927852
 C           -7.169299           -0.148681           -0.996216
 C           -7.635504            0.250526           -2.293010
 C           -7.036280           -0.238847           -3.428018
 C           -7.458563            0.109173           -4.774270
 C           -7.754374            0.317402            0.185585
 C           -7.275863           -0.098055            1.439033
 C           -7.883679            0.367888            2.649332
 C           -7.426010           -0.039564            3.882351
 C           -8.041963            0.411247            5.122244
 C           -7.574684           -0.004673            6.324135
 C           -6.443762           -0.906843            6.407478
 C           -5.831581           -1.354349            5.284716
 C           -6.295493           -0.948959            3.965168
 C           -5.697152           -1.405889            2.812131
 C           -6.167700           -1.013519            1.516731
 C           -5.581258           -1.504777            0.329374
 C           -4.489609           -2.508970            0.392704
 C           -4.799540           -3.825869            0.537103
 C           -3.760933           -4.828553            0.608118
 C           -2.454525           -4.479749            0.531152
 C           -2.058993           -3.088318            0.367924
 C           -0.732983           -2.727292            0.277009
 C           -0.342738           -1.359602            0.111455
 C            1.006298           -0.983599            0.013258
 C            1.374745            0.359958           -0.156276
 C            2.748176            0.755126           -0.266914
 C            3.105545            2.074924           -0.426918
 C            4.498953            2.509268           -0.543041
 C            5.586026            1.501338           -0.463948
 C            6.117262            1.121127            0.788407
 C            5.610841            1.654870            2.017984
 C            6.150344            1.299107            3.234061
 C            5.647131            1.844619            4.487059
 C            6.202284            1.495624            5.672685
 C            7.308930            0.561625            5.725153
 C            7.808591            0.015198            4.590407
 C            7.255526            0.357009            3.287686
 C            7.750089           -0.180297            2.120326
 C            7.205087            0.180287            0.845969
 C            7.725028           -0.362003           -0.340905
 C            7.203528            0.003803           -1.585959
 C            7.718799           -0.519955           -2.818387
 C            7.183223           -0.124110           -4.019738
 C            7.658491           -0.599545           -5.308162
 C            7.088901           -0.169682           -6.459422
 C            5.983389            0.770667           -6.441660
 C            5.493515            1.251716           -5.276488
 C            6.074638            0.833411           -4.000932
 N            5.574581            1.340096           -2.877622
 C            6.115274            0.949937           -1.653103
 C            4.809572            3.821316           -0.722259
 C            3.772070            4.825860           -0.787412
 C            2.466675            4.483394           -0.673635
 C            2.069298            3.094483           -0.493856
 C            0.743215            2.735828           -0.393545
 C            0.351348            1.369027           -0.222699
 C           -0.997730            0.993081           -0.122921
 C           -1.366651           -0.351394            0.040235
 C           -2.740391           -0.749834            0.135836
 C           -3.096310           -2.070185            0.296013
 H           -7.135318           -0.158446           -6.869188
 H           -5.229133           -1.686159           -6.610534
 H           -4.415808           -2.355514           -4.328260
 H           -8.473175            0.945867           -2.353271
 H           -8.299098            0.794790           -4.875828
 H           -8.595178            1.009176            0.133698
 H           -8.726058            1.054556            2.569443
 H           -8.889657            1.090517            5.043767
 H           -8.029440            0.323544            7.257827
 H           -6.108530           -1.207548            7.398965
 H           -4.977511           -2.030177            5.330348
 H           -4.840894           -2.083024            2.865957
 H           -5.834443           -4.161185            0.593474
 H           -4.069953           -5.866357            0.722737
 H           -1.661544           -5.224087            0.584009
 H            0.050905           -3.482341            0.323906
 H            1.780314           -1.748532            0.067941
 H            3.510483           -0.025167           -0.227957
 H            4.776364            2.359141            1.969156
 H            4.810315            2.540994            4.430723
 H            5.836884            1.900651            6.615187
 H            7.718367            0.317523            6.704487
 H            8.636565           -0.691907            4.614491
 H            8.574630           -0.892407            2.143241
 H            8.548847           -1.074040           -0.290395
 H            8.542360           -1.233266           -2.776448
 H            8.485436           -1.308844           -5.308220
 H            7.438417           -0.514732           -7.431741
 H            5.563233            1.071766           -7.401417
 H            4.660073            1.956293           -5.228923
 H            5.842965            4.148584           -0.830768
 H            4.081581            5.859790           -0.932166
 H            1.675395            5.230099           -0.717288
 H           -0.040257            3.490886           -0.448057
 H           -1.772046            1.757864           -0.175802
 H           -3.505441            0.025687            0.068039

