92

 C           -7.513871           -3.212341            6.561015
 C           -6.705237           -2.283955            6.021161
 C           -6.917892           -2.065948            4.586477
 C           -6.271357           -1.199599            3.753624
 C           -6.632625           -1.143749            2.356941
 C           -7.667904           -2.005780            1.854685
 C           -8.004400           -1.960160            0.494317
 C           -7.349846           -1.085879           -0.385279
 C           -7.687340           -1.049738           -1.790240
 C           -7.025910           -0.181988           -2.594084
 S           -7.231936            0.051736           -4.325113
 C           -6.010960            1.322671           -4.390025
 C           -5.463622            1.566936           -3.181158
 C           -4.442159            2.597212           -2.916866
 C           -4.815204            3.894612           -2.749709
 C           -3.827929            4.926311           -2.522173
 C           -2.508107            4.624522           -2.485002
 C           -2.046235            3.254251           -2.654055
 C           -0.705604            2.940502           -2.623417
 C           -0.254170            1.588468           -2.761868
 C            1.110281            1.259586           -2.738182
 C            1.535168           -0.074261           -2.838852
 C            2.924838           -0.424096           -2.820060
 C            3.335542           -1.736351           -2.887018
 C            4.746832           -2.124669           -2.880605
 C            5.781934           -1.074450           -2.862373
 C            6.453032           -0.642298           -3.950201
 S            7.652149            0.587214           -3.549453
 C            7.261733            0.537494           -1.835204
 C            7.828940            1.254801           -0.834922
 C            7.343059            1.065830            0.513100
 C            7.895100            1.777775            1.587928
 C            7.414183            1.606347            2.893669
 C            6.335313            0.687194            3.135700
 C            5.792411           -0.033160            2.061410
 C            6.274387            0.135125            0.754493
 C            5.713550           -0.611054           -0.346625
 C            6.195271           -0.420052           -1.608923
 C            5.825073            0.521159            4.476086
 C            6.373818            1.233195            5.502821
 C            6.006178            1.219401            6.922617
 C            6.747619            2.037482            7.689429
 S            7.967506            2.905702            6.747158
 C            7.471046            2.147704            5.239751
 C            7.983821            2.341594            4.000735
 C            5.112117           -3.434774           -2.906509
 C            4.116007           -4.481388           -2.959015
 C            2.796425           -4.178754           -2.998661
 C            2.342307           -2.795838           -2.970756
 C            1.002560           -2.480394           -3.017088
 C            0.555629           -1.121005           -2.960924
 C           -0.807353           -0.789648           -3.013502
 C           -1.231797            0.544852           -2.920608
 C           -2.619690            0.897514           -2.976631
 C           -3.033469            2.204679           -2.853549
 C           -6.000606            0.719558           -2.102370
 C           -5.657967            0.699532           -0.781785
 C           -6.324160           -0.212741            0.117130
 C           -5.986500           -0.261640            1.477987
 C           -8.343268           -2.908298            2.760104
 C           -7.968505           -2.920547            4.062094
 S           -8.613757           -3.910994            5.364454
 H           -7.562179           -3.556867            7.581285
 H           -5.948749           -1.720692            6.553717
 H           -5.481219           -0.543762            4.114534
 H           -8.787959           -2.615951            0.113872
 H           -8.460507           -1.719865           -2.162282
 H           -5.790236            1.799544           -5.332286
 H           -5.863258            4.193131           -2.785640
 H           -4.185656            5.946566           -2.388599
 H           -1.751894            5.392458           -2.324910
 H            0.043709            3.720441           -2.486891
 H            1.851804            2.052613           -2.638193
 H            3.656032            0.384487           -2.751497
 H            6.336860           -0.956668           -4.975697
 H            8.633724            1.967261           -1.008499
 H            8.711591            2.476855            1.404866
 H            4.979203           -0.736843            2.244343
 H            4.908137           -1.318881           -0.147971
 H            5.003662           -0.174015            4.639000
 H            5.198847            0.587716            7.272326
 H            6.683810            2.211984            8.751312
 H            8.806343            3.028178            3.806612
 H            6.161058           -3.732079           -2.891961
 H            4.467085           -5.512579           -2.970816
 H            2.034465           -4.955868           -3.049189
 H            0.250066           -3.265447           -3.092665
 H           -1.548180           -1.581496           -3.126449
 H           -3.346812            0.095450           -3.121511
 H           -4.886567            1.360815           -0.385667
 H           -5.205985            0.398484            1.858929
 H           -9.131340           -3.550376            2.370041

