92

 C            7.591066           -6.954897           -0.557078
 C            6.661125           -6.224322            0.082116
 C            6.906282           -4.778784            0.045292
 C            6.161611           -3.776902            0.596519
 C            6.580440           -2.404238            0.437360
 C            5.837129           -1.352991            0.993990
 C            6.230260           -0.016413            0.829021
 C            7.416436            0.281039            0.073353
 C            8.167821           -0.769513           -0.472742
 C            7.774806           -2.104832           -0.305065
 C            8.550162           -3.186149           -0.870587
 C            8.116128           -4.456946           -0.691015
 S            8.857366           -5.944063           -1.267253
 C            7.812565            1.658461           -0.114630
 C            7.049804            2.633085            0.437708
 S            7.295930            4.372574            0.350441
 C            5.877768            4.713469            1.341766
 C            5.237549            3.588167            1.722042
 C            4.043556            3.556691            2.586852
 C            4.177756            3.720320            3.930709
 C            3.020280            3.730648            4.796984
 C            1.773578            3.593126            4.286259
 C            1.564881            3.408727            2.857290
 C            0.300025            3.270778            2.330554
 C            0.096447            3.058360            0.929157
 C           -1.189739            2.921236            0.383989
 C           -1.373195            2.679957           -0.986266
 C           -2.680720            2.542164           -1.556166
 C           -2.854319            2.274176           -2.895281
 C           -4.176501            2.135451           -3.507002
 C           -5.376918            2.352060           -2.678150
 C           -6.067912            3.509071           -2.613811
 S           -7.472683            3.389606           -1.553946
 C           -7.148496            1.704980           -1.165116
 C           -7.868395            0.884930           -0.361405
 C           -7.410109           -0.472740           -0.170684
 C           -6.207836           -0.911416           -0.825337
 C           -5.753529           -2.223084           -0.622065
 C           -6.452052           -3.115418            0.204433
 C           -5.970793           -4.459165            0.422657
 C           -6.674205           -5.306294            1.228649
 C           -6.364902           -6.695145            1.584193
 C           -7.266665           -7.266106            2.401355
 S           -8.582553           -6.158720            2.815926
 C           -7.903420           -4.851809            1.854737
 C           -8.395393           -3.601012            1.684307
 C           -7.664307           -2.679840            0.843278
 C           -8.117609           -1.368116            0.644324
 C           -5.486225            0.000023           -1.681041
 C           -5.945065            1.273459           -1.851475
 C           -4.307871            1.823921           -4.824421
 C           -3.144387            1.642672           -5.663510
 C           -1.896836            1.792991           -5.157998
 C           -1.690391            2.118326           -3.753948
 C           -0.425477            2.273176           -3.231410
 C           -0.223451            2.562821           -1.843478
 C            1.061732            2.727175           -1.302605
 C            1.245015            2.977857            0.066152
 C            2.550374            3.152596            0.631679
 C            2.725214            3.365860            1.980591
 C            5.860085            2.351492            1.219362
 C            5.460687            1.060284            1.405323
 H            7.645916           -8.024671           -0.677870
 H            5.790819           -6.618943            0.592085
 H            5.251063           -3.983633            1.156411
 H            4.935347           -1.577769            1.564896
 H            9.071960           -0.544452           -1.039131
 H            9.457727           -2.948870           -1.423201
 H            8.709534            1.872219           -0.693712
 H            5.622305            5.736144            1.570816
 H            5.157446            3.853100            4.390119
 H            3.190937            3.859214            5.865203
 H            0.890170            3.613580            4.923845
 H           -0.577515            3.315202            2.975781
 H           -2.060244            3.000495            1.035730
 H           -3.543023            2.655808           -0.895020
 H           -5.858177            4.440458           -3.115955
 H           -8.776432            1.208204            0.145149
 H           -4.839253           -2.554114           -1.116149
 H           -5.047710           -4.769000           -0.064375
 H           -5.474192           -7.174027            1.196191
 H           -7.275073           -8.264569            2.807632
 H           -9.317484           -3.264157            2.155096
 H           -9.034971           -1.038608            1.132990
 H           -4.580470           -0.347272           -2.179333
 H           -5.289562            1.708930           -5.284161
 H           -3.311904            1.389793           -6.709782
 H           -1.011037            1.674058           -5.781319
 H            0.453474            2.171525           -3.868133
 H            1.931670            2.656040           -1.956012
 H            3.410043            3.111755           -0.041314
 H            4.566312            0.821449            1.982038

