92

 C           15.585522           -1.489836           -2.087902
 C           14.620482           -0.645258           -2.490861
 C           13.471781           -0.571596           -1.582030
 C           12.340566            0.181691           -1.704689
 C           11.316825            0.106018           -0.689729
 C           11.500139           -0.760054            0.443005
 C           10.502484           -0.830883            1.426097
 C            9.326585           -0.074764            1.320615
 C            8.297281           -0.151384            2.333163
 C            7.179664            0.598909            2.180125
 S            5.791734            0.695489            3.256171
 C            4.966326            1.879586            2.215499
 C            3.677088            2.380976            2.677911
 C            3.633584            3.378781            3.604449
 C            2.370992            3.896018            4.080614
 C            1.201112            3.401514            3.610934
 C            1.180186            2.335838            2.619597
 C           -0.008192            1.833701            2.137910
 C           -0.033025            0.778031            1.171036
 C           -1.239548            0.269872            0.665021
 C           -1.248149           -0.766596           -0.281229
 C           -2.472334           -1.282321           -0.819110
 C           -2.476618           -2.304422           -1.741489
 C           -3.708768           -2.851610           -2.315115
 C           -4.993949           -2.290658           -1.913391
 C           -5.678921           -1.230356           -2.382598
 C           -6.969057           -1.016364           -1.723431
 C           -7.895784           -0.045815           -1.972081
 C           -9.117879           -0.008221           -1.204281
 C          -10.086852            0.978864           -1.437058
 C          -11.272454            1.025007           -0.688351
 C          -11.498686            0.040178            0.334201
 C          -10.533601           -0.951226            0.563442
 C           -9.348209           -0.994480           -0.183947
 C           -8.352443           -2.015118            0.055816
 C           -7.222630           -2.007161           -0.691806
 S           -5.867393           -3.125192           -0.606805
 C          -12.716870            0.088488            1.111375
 C          -13.614400            1.069268            0.849091
 S          -15.160104            1.362997            1.635484
 C          -15.510101            2.770466            0.622219
 C          -14.525871            3.013507           -0.260533
 C          -13.405007            2.070971           -0.181289
 C          -12.263892            2.046276           -0.929191
 C           -3.668304           -3.876854           -3.211011
 C           -2.408757           -4.451148           -3.625964
 C           -1.238766           -3.977286           -3.135290
 C           -1.214644           -2.882510           -2.176147
 C           -0.026241           -2.395845           -1.678327
 C            0.000200           -1.326574           -0.726428
 C            1.206988           -0.815542           -0.223203
 C            1.216113            0.231693            0.711204
 C            2.441015            0.775153            1.220040
 C            2.444442            1.798262            2.141399
 C            5.687604            2.177223            1.117689
 C            6.971269            1.476393            1.041284
 C            7.929212            1.568294            0.073502
 C            9.140128            0.790322            0.187603
 C           10.140738            0.864068           -0.792609
 C           12.708615           -1.546537            0.549280
 C           13.637940           -1.441858           -0.431413
 S           15.180943           -2.277070           -0.555977
 H           16.521653           -1.726128           -2.567529
 H           14.640619           -0.050625           -3.396020
 H           12.185863            0.843782           -2.554596
 H           10.643854           -1.486119            2.286326
 H            8.450499           -0.808584            3.187751
 H            4.546247            3.816313            4.012180
 H            2.399409            4.690416            4.825778
 H            0.240605            3.780448            3.959603
 H           -0.960110            2.232754            2.488541
 H           -2.185332            0.685712            1.013059
 H           -3.408818           -0.839622           -0.472912
 H           -5.347028           -0.572012           -3.176509
 H           -7.738977            0.708692           -2.740813
 H           -9.915115            1.724708           -2.213897
 H          -10.708321           -1.700422            1.336381
 H           -8.539647           -2.759121            0.828517
 H          -12.876699           -0.662368            1.883617
 H          -16.433389            3.306807            0.771114
 H          -14.513143            3.818502           -0.985160
 H          -12.077337            2.781866           -1.709416
 H           -4.580949           -4.292845           -3.640397
 H           -2.439449           -5.272861           -4.340675
 H           -0.280807           -4.399519           -3.438054
 H            0.924054           -2.821114           -2.001214
 H            2.152214           -1.239467           -0.562619
 H            3.378591            0.350512            0.854978
 H            5.388267            2.870452            0.340778
 H            7.806173            2.218360           -0.790815
 H           10.001681            1.522075           -1.651041
 H           12.835779           -2.199609            1.411252

