86

 C          -10.969646            1.011700           -2.548123
 C          -10.538745            1.760224           -1.507716
 C           -9.394994            1.344747           -0.700029
 C           -8.943543            2.091208            0.352165
 C           -7.807957            1.675301            1.145760
 C           -7.356510            2.438819            2.205951
 C           -6.246032            2.004919            2.980664
 C           -5.666342            2.630260            4.080272
 S           -4.378680            1.700110            4.669249
 C           -4.533910            0.458347            3.510932
 C           -3.658504           -0.704648            3.543074
 C           -3.896140           -1.712695            4.428184
 C           -3.039344           -2.875193            4.479458
 C           -1.974107           -2.987745            3.650607
 C           -1.660866           -1.943805            2.685553
 C           -0.573276           -2.046705            1.846659
 C           -0.260192           -1.016470            0.902442
 C            0.854343           -1.105067            0.053659
 C            1.148202           -0.085332           -0.864952
 C            2.280168           -0.165988           -1.740178
 C            2.559738            0.830699           -2.647684
 C            3.698215            0.764184           -3.569838
 C            4.569260           -0.402086           -3.543477
 C            5.605761           -0.713505           -2.662339
 C            6.063055            0.024794           -1.537169
 C            7.130057           -0.436765           -0.788541
 C            7.619277            0.296981            0.358209
 C            8.679283           -0.149498            1.097079
 C            9.181192            0.586472            2.254440
 C           10.228945            0.127962            2.975876
 C           10.890507           -1.115341            2.618794
 C           10.474672           -1.839673            1.555464
 C            9.347945           -1.401229            0.736144
 C            8.911740           -2.123411           -0.339001
 C            7.793016           -1.684960           -1.144293
 C            7.357261           -2.424026           -2.227912
 C            6.263518           -1.968255           -3.013752
 C            5.701498           -2.567919           -4.136431
 S            4.429278           -1.619518           -4.729591
 C            3.940325            1.776311           -4.449191
 C            3.084330            2.939430           -4.498644
 C            2.015043            3.048447           -3.674515
 C            1.698414            2.001084           -2.714339
 C            0.607914            2.101460           -1.878835
 C            0.293454            1.069696           -0.936861
 C           -0.821961            1.157687           -0.089044
 C           -1.115083            0.138474            0.830234
 C           -2.246096            0.220322            1.706714
 C           -2.522622           -0.773742            2.617920
 C           -5.588078            0.746554            2.642932
 C           -6.061459           -0.016816            1.541591
 C           -7.144553            0.423611            0.803435
 C           -7.650210           -0.336063           -0.318856
 C           -8.725880            0.089438           -1.047364
 C           -9.244145           -0.672793           -2.180067
 C          -10.307424           -0.235049           -2.891673
 H          -11.819396            1.314057           -3.158142
 H          -11.026661            2.695650           -1.236425
 H           -9.431002            3.026611            0.626048
 H           -7.840547            3.377041            2.469156
 H           -5.968877            3.564950            4.518186
 H           -4.740025           -1.673999            5.117388
 H           -3.284238           -3.650132            5.204997
 H           -1.319141           -3.857874            3.679809
 H            0.076310           -2.920951            1.886652
 H            1.503166           -1.979350            0.109879
 H            2.922056           -1.047101           -1.666776
 H            5.553815            0.955406           -1.285751
 H            7.108841            1.225729            0.614557
 H            8.675787            1.517287            2.509488
 H           10.609674            0.669158            3.840577
 H           11.727244           -1.435266            3.237833
 H           10.962189           -2.772238            1.273802
 H            9.398686           -3.056094           -0.622934
 H            7.840705           -3.359685           -2.501192
 H            6.007355           -3.495179           -4.587612
 H            4.786467            1.740201           -5.135714
 H            3.332463            3.717265           -5.220023
 H            1.359312            3.917958           -3.703862
 H           -0.042727            2.974853           -1.919574
 H           -1.471693            2.031180           -0.146251
 H           -2.889556            1.100029            1.631278
 H           -5.551838           -0.949784            1.299873
 H           -7.139658           -1.267481           -0.565134
 H           -8.738330           -1.606106           -2.424974
 H          -10.700295           -0.795877           -3.738107

