86

 C           -6.492577            0.507084           -3.185337
 C           -5.395596           -0.269415           -3.324572
 C           -5.103034           -1.319401           -2.356631
 C           -3.904195           -2.159370           -2.592437
 C           -3.996323           -3.271245           -3.369484
 C           -2.843917           -4.113781           -3.598967
 C           -1.647394           -3.816846           -3.037921
 C           -1.482957           -2.637240           -2.200350
 C           -0.269655           -2.326121           -1.627579
 C           -0.107132           -1.157524           -0.815467
 C            1.125073           -0.831859           -0.227090
 C            1.270134            0.321927            0.559061
 C            2.524847            0.668858            1.158017
 C            2.663829            1.801217            1.928810
 C            3.934923            2.185068            2.544056
 C            5.135112            1.348569            2.303116
 C            5.904105            1.511383            1.198002
 C            7.103173            0.708772            0.988594
 C            7.895698            0.866756           -0.115016
 C            9.091066            0.077208           -0.310221
 C            9.888814            0.244091           -1.428883
 C           11.057610           -0.544647           -1.598475
 C           11.973993           -0.522475           -2.648712
 S           13.191573           -1.663486           -2.374015
 C           12.580169           -2.220020           -0.899090
 C           11.410680           -1.531252           -0.581051
 C           10.579816           -1.683386            0.560336
 C            9.443790           -0.906241            0.704035
 C            8.579808           -1.046251            1.854817
 C            7.455472           -0.283191            2.005062
 C            6.577006           -0.422071            3.163154
 C            5.477356            0.349508            3.308008
 C            4.026087            3.294638            3.324714
 C            2.872765            4.135151            3.557104
 C            1.676360            3.838952            2.995615
 C            1.512435            2.661277            2.155311
 C            0.298871            2.350134            1.583160
 C            0.136228            1.182452            0.769751
 C           -1.095892            0.856861            0.181228
 C           -1.240906           -0.296669           -0.605367
 C           -2.495222           -0.643407           -1.205198
 C           -2.633638           -1.775694           -1.976192
 C           -5.915642           -1.525357           -1.290849
 C           -7.113197           -0.718637           -1.088388
 C           -7.948771           -0.918854           -0.024156
 C           -9.142928           -0.125555            0.162974
 C           -9.984444           -0.335418            1.241533
 C          -11.151251            0.457791            1.403948
 C          -12.107738            0.396702            2.416131
 S          -13.302540            1.563501            2.149969
 C          -12.629368            2.181449            0.727169
 C          -11.455495            1.494703            0.421395
 C          -10.580469            1.690136           -0.679809
 C           -9.447361            0.907634           -0.816899
 C           -8.538814            1.091232           -1.926628
 C           -7.416655            0.323646           -2.069671
 H           -6.726187            1.295530           -3.900945
 H           -4.699978           -0.142262           -4.153542
 H           -4.938639           -3.559638           -3.834941
 H           -2.977430           -4.989851           -4.232162
 H           -0.772678           -4.446564           -3.195325
 H            0.597985           -2.966828           -1.784695
 H            1.983838           -1.485037           -0.383373
 H            3.375680            0.005738            0.985978
 H            5.653332            2.249689            0.436045
 H            7.646029            1.599079           -0.882951
 H            9.636682            0.976774           -2.193319
 H           11.939225            0.112025           -3.516247
 H           13.045839           -2.993781           -0.315205
 H           10.855836           -2.419438            1.313108
 H            8.857105           -1.787160            2.604503
 H            6.846596           -1.173815            3.905194
 H            4.815193            0.254962            4.168120
 H            4.968440            3.583181            3.790109
 H            3.005812            5.009602            4.192809
 H            0.801082            4.467413            3.155098
 H           -0.569323            2.989636            1.742354
 H           -1.954977            1.509554            0.337931
 H           -3.346576            0.019133           -1.033384
 H           -5.702570           -2.302755           -0.556789
 H           -7.735946           -1.689585            0.716844
 H           -9.768984           -1.106345            1.979141
 H          -12.112962           -0.279032            3.252670
 H          -13.064901            2.986756            0.163100
 H          -10.820832            2.462990           -1.407457
 H           -8.780577            1.868738           -2.651081

