84

 C           -8.939789           -2.424322           -0.074760
 C           -7.866192           -1.982721           -0.850950
 C           -7.258406           -0.745898           -0.580080
 C           -7.740408            0.047135            0.497184
 C           -8.833792           -0.412662            1.282174
 C           -9.425123           -1.649948            0.981340
 C           -9.305149            0.418847            2.376933
 C           -8.719495            1.607134            2.658683
 C           -7.599741            2.103480            1.876106
 C           -6.985828            3.333138            2.162392
 C           -5.913918            3.780486            1.387890
 C           -5.439813            3.019674            0.317205
 C           -6.033015            1.787205            0.001028
 C           -7.119553            1.318088            0.791150
 C           -5.581025            0.961619           -1.116110
 C           -4.496607            1.473938           -1.991566
 C           -4.806595            2.235360           -3.075043
 C           -3.772701            2.731276           -3.955805
 C           -2.470166            2.442328           -3.724050
 C           -2.074008            1.631058           -2.581955
 C           -0.752097            1.326365           -2.344444
 C           -0.360783            0.538246           -1.214777
 C            0.983226            0.216099           -0.969007
 C            1.352871           -0.543928            0.151447
 C            2.720267           -0.886977            0.409566
 C            3.079830           -1.617837            1.519424
 C            4.465681           -1.991486            1.804448
 C            5.535945           -1.602753            0.851544
 C            5.948830           -2.479817           -0.101555
 C            7.028658           -2.156465           -1.014817
 C            7.665085           -0.890288           -0.898528
 C            8.739552           -0.554463           -1.767933
 C            9.159403           -1.482766           -2.733935
 C            8.524382           -2.721760           -2.843089
 C            7.467328           -3.060705           -1.995735
 C            9.371345            0.746612           -1.626078
 C            8.951487            1.632826           -0.691917
 C            7.855305            1.319855            0.209765
 C            7.412816            2.233417            1.179578
 C            6.358558            1.898524            2.031140
 C            5.732603            0.653737            1.937555
 C            6.151718           -0.284435            0.980986
 C            7.219717            0.051373            0.102547
 C            4.781568           -2.699059            2.922125
 C            3.757939           -3.106386            3.858521
 C            2.457595           -2.798420            3.638460
 C            2.054864           -2.046742            2.458598
 C            0.733375           -1.739033            2.222902
 C            0.337654           -0.989427            1.068795
 C           -1.007520           -0.677491            0.816666
 C           -1.378342            0.072332           -0.310269
 C           -2.748681            0.390809           -0.583592
 C           -3.106053            1.140502           -1.681557
 C           -6.156984           -0.241274           -1.378256
 H           -9.405553           -3.384505           -0.296168
 H           -7.500043           -2.598788           -1.670539
 H          -10.265696           -2.007305            1.573515
 H          -10.146950            0.049342            2.962129
 H           -9.071599            2.229632            3.481232
 H           -7.346694            3.939613            2.991691
 H           -5.441569            4.734703            1.620620
 H           -4.600854            3.385659           -0.277180
 H           -5.839901            2.490786           -3.309943
 H           -4.082389            3.338084           -4.805858
 H           -1.679449            2.804485           -4.380215
 H            0.027169            1.684577           -3.016880
 H            1.753020            0.563384           -1.658403
 H            3.477687           -0.550166           -0.302050
 H            5.481141           -3.460420           -0.201437
 H            9.983646           -1.235860           -3.400754
 H            8.858294           -3.432851           -3.598599
 H            6.982706           -4.030559           -2.094645
 H           10.194878            0.981430           -2.300125
 H            9.424358            2.609250           -0.586573
 H            7.893205            3.206749            1.267212
 H            6.020023            2.615946            2.778483
 H            4.910296            0.409559            2.612355
 H            5.811760           -2.978588            3.142679
 H            4.072736           -3.667332            4.737658
 H            1.673799           -3.100839            4.331972
 H           -0.041886           -2.061397            2.917682
 H           -1.777017           -1.021132            1.508135
 H           -3.510022            0.021738            0.107403
 H           -5.810618           -0.859994           -2.207542

