104

 C            9.643721            1.849422            3.449119
 C           10.263868            0.720415            2.826925
 C            9.608899            0.019292            1.850912
 C            8.288914            0.406183            1.437527
 C            7.587296           -0.303381            0.428223
 C            6.313042            0.072704            0.031857
 C            5.694582            1.208706            0.662056
 C            6.368112            1.910730            1.649604
 C            7.672114            1.527998            2.056979
 C            8.386672            2.242818            3.077472
 C            4.357400            1.611418            0.249777
 C            3.677981            0.948654           -0.714000
 C            2.315288            1.401517           -1.095146
 C            2.141300            2.382009           -2.056326
 C            3.259404            2.973026           -2.779589
 C            3.065300            3.945393           -3.702447
 C            1.732865            4.430424           -3.997805
 C            0.654721            3.908742           -3.365321
 C            0.803094            2.855523           -2.369835
 C           -0.287464            2.319007           -1.724437
 C           -0.134773            1.293602           -0.737187
 C           -1.247812            0.754070           -0.073257
 C           -1.105738           -0.245752            0.901096
 C           -2.232524           -0.798874            1.609583
 C           -3.583797           -0.247438            1.331508
 C           -4.048283            0.788088            2.067542
 C           -5.366651            1.362614            1.839037
 C           -5.818340            2.419538            2.614011
 C           -7.103174            2.982991            2.402625
 C           -7.590561            4.075927            3.196880
 C           -8.835202            4.597704            2.969459
 C           -9.668295            4.062823            1.936981
 C           -9.232192            3.021397            1.163356
 C           -7.931688            2.450376            1.376793
 C           -7.455536            1.369290            0.590032
 C           -6.200316            0.819198            0.799965
 C           -5.698339           -0.303586           -0.007520
 C           -6.462406           -0.859841           -1.022275
 C           -5.984611           -1.944394           -1.802495
 C           -6.774174           -2.523572           -2.853183
 C           -6.288279           -3.571005           -3.588025
 C           -4.987765           -4.103359           -3.320779
 C           -4.211215           -3.571704           -2.326857
 C           -4.691784           -2.472575           -1.537374
 C           -3.911812           -1.899834           -0.499089
 C           -4.388458           -0.841044            0.257364
 C           -2.060788           -1.800503            2.549401
 C           -3.179700           -2.399149            3.264913
 C           -2.984610           -3.365669            4.193872
 C           -1.650073           -3.833653            4.506530
 C           -0.573334           -3.321407            3.864005
 C           -0.724192           -2.286035            2.850468
 C            0.364594           -1.761686            2.191971
 C            0.211678           -0.734595            1.206790
 C            1.324893           -0.193825            0.543807
 C            1.184337            0.818139           -0.417804
 C            4.257558           -0.217276           -1.390968
 C            3.560946           -0.897873           -2.376719
 C            4.121369           -2.027766           -3.027448
 C            3.410261           -2.741954           -4.050358
 C            3.977045           -3.829038           -4.658953
 C            5.285481           -4.269400           -4.284470
 C            5.988822           -3.609294           -3.313389
 C            5.422158           -2.464677           -2.656314
 C            6.127361           -1.759255           -1.647027
 C            5.576856           -0.655309           -1.013475
 H           10.194763            2.384573            4.221148
 H           11.264689            0.435136            3.147308
 H           10.071608           -0.841560            1.370688
 H            8.076660           -1.161995           -0.036242
 H            5.899359            2.771020            2.127200
 H            7.904810            3.100701            3.544090
 H            3.918588            2.476272            0.752189
 H            4.259819            2.598739           -2.552802
 H            3.898030            4.387259           -4.247869
 H            1.633449            5.220764           -4.740221
 H           -0.355062            4.259223           -3.575878
 H           -1.295422            2.667387           -1.951428
 H           -2.244781            1.124273           -0.323243
 H           -3.442671            1.227411            2.863313
 H           -5.186579            2.831699            3.400772
 H           -6.947924            4.475117            3.980207
 H           -9.215149            5.425508            3.566450
 H          -10.652826            4.501990            1.783727
 H           -9.858123            2.606508            0.374831
 H           -8.105466            0.973469           -0.193083
 H           -7.457723           -0.466580           -1.238811
 H           -7.762500           -2.110753           -3.048204
 H           -6.878415           -4.017610           -4.386788
 H           -4.633937           -4.937326           -3.924572
 H           -3.219313           -3.968731           -2.113732
 H           -2.918490           -2.311956           -0.303993
 H           -4.182441           -2.042392            3.020856
 H           -3.818753           -3.818179            4.728223
 H           -1.548063           -4.604775            5.268541
 H            0.437731           -3.662154            4.084316
 H            1.371558           -2.118493            2.410244
 H            2.320758           -0.572185            0.786041
 H            2.559558           -0.570778           -2.668039
 H            2.414517           -2.397080           -4.326998
 H            3.447139           -4.377458           -5.435906
 H            5.705213           -5.138583           -4.788592
 H            6.985144           -3.936085           -3.020553
 H            7.125803           -2.107388           -1.374859

