104

 C           -0.777742            5.164015            7.683086
 C            0.112882            4.277118            7.000409
 C           -0.372383            3.344863            6.123521
 C           -1.783443            3.243702            5.875024
 C           -2.313061            2.287967            4.968395
 C           -3.675619            2.195962            4.729884
 C           -4.566293            3.091934            5.420538
 C           -4.062719            4.027513            6.309707
 C           -2.668284            4.125115            6.554917
 C           -2.127684            5.091538            7.469265
 C           -6.002451            3.005144            5.172910
 C           -6.515647            2.107372            4.309672
 C           -5.660368            1.174080            3.582217
 C           -6.208460            0.259542            2.698240
 C           -5.387839           -0.656422            1.989051
 C           -5.950520           -1.602678            1.067759
 C           -5.142766           -2.478525            0.394860
 C           -3.730700           -2.466924            0.602212
 C           -3.159320           -1.575380            1.478437
 C           -1.689283           -1.589023            1.684596
 C           -1.123671           -2.389838            2.661967
 C           -1.925495           -3.221337            3.549906
 C           -1.349028           -3.999160            4.497415
 C            0.090430           -4.029641            4.654664
 C            0.885809           -3.276599            3.857537
 C            0.320509           -2.418368            2.824913
 C            1.121408           -1.648379            2.012438
 C            0.559991           -0.802893            1.002643
 C            1.376931           -0.009925            0.180695
 C            0.833165            0.821964           -0.809813
 C            1.655026            1.646301           -1.660595
 C            3.123037            1.647111           -1.440075
 C            3.957922            0.682432           -2.114391
 C            3.427007           -0.297878           -2.993578
 C            4.242024           -1.217726           -3.634979
 C            5.661721           -1.172597           -3.400502
 C            6.194430           -0.222937           -2.544411
 C            5.361193            0.718434           -1.885044
 C            5.908236            1.701224           -0.992811
 C            5.088278            2.598664           -0.364625
 C            3.679244            2.572847           -0.589843
 C            6.529779           -2.135318           -4.072215
 C            6.032367           -3.066448           -4.908932
 C            4.601660           -3.159429           -5.184108
 C            4.115348           -4.126028           -6.049187
 C            2.726705           -4.228221           -6.323525
 C            2.204582           -5.224815           -7.215770
 C            0.860008           -5.300132           -7.460193
 C           -0.043337           -4.386879           -6.831115
 C            0.424418           -3.425875           -5.975799
 C            1.829499           -3.320204           -5.696986
 C            2.341502           -2.333730           -4.813178
 C            3.698608           -2.236290           -4.547195
 C            1.090647            2.438553           -2.645274
 C            1.893062            3.266806           -3.535828
 C            1.317637            4.034777           -4.492031
 C           -0.121359            4.059102           -4.654784
 C           -0.917245            3.309674           -3.855162
 C           -0.353131            2.460680           -2.814039
 C           -1.154693            1.694387           -1.999000
 C           -0.594251            0.854727           -0.983461
 C           -1.411367            0.064549           -0.159436
 C           -0.867602           -0.767327            0.831535
 C           -3.981215           -0.632505            2.198225
 C           -3.433845            0.314721            3.103372
 C           -4.236637            1.210702            3.792130
 H           -0.356871            5.893968            8.372765
 H            1.180767            4.362382            7.195054
 H            0.296399            2.664338            5.598044
 H           -1.617966            1.618944            4.455227
 H           -4.736187            4.704694            6.834458
 H           -2.815914            5.760633            7.983291
 H           -6.642279            3.700581            5.717379
 H           -7.588389            2.045488            4.125164
 H           -7.285440            0.231449            2.535263
 H           -7.029169           -1.603859            0.919192
 H           -5.557442           -3.200080           -0.308061
 H           -3.114673           -3.179371            0.053229
 H           -3.009669           -3.191620            3.424397
 H           -1.945199           -4.619818            5.164735
 H            0.502166           -4.674598            5.429435
 H            1.970225           -3.288147            3.961075
 H            2.206189           -1.669864            2.120647
 H            2.460529           -0.046283            0.315808
 H            2.344738           -0.315187           -3.156276
 H            7.268521           -0.186807           -2.364831
 H            6.984721            1.712202           -0.829714
 H            5.490784            3.348075            0.316066
 H            3.052788            3.301536           -0.074849
 H            7.598557           -2.067930           -3.867677
 H            6.681313           -3.785052           -5.410762
 H            4.797993           -4.824432           -6.532585
 H            2.902106           -5.914277           -7.688686
 H            0.453199           -6.052392           -8.134060
 H           -1.106495           -4.475371           -7.048660
 H           -0.254438           -2.725436           -5.490922
 H            1.636895           -1.645022           -4.340637
 H            2.976779            3.241972           -3.405705
 H            1.914140            4.651748           -5.162446
 H           -0.532152            4.696188           -5.436602
 H           -2.001296            3.316601           -3.962996
 H           -2.239203            1.713235           -2.109915
 H           -2.495030            0.101747           -0.293350
 H           -2.348905            0.325575            3.247948

