96

 C          -11.017865            2.661124           -1.555172
 C          -11.251274            2.028293           -0.320133
 C          -10.259029            1.247842            0.269619
 C           -8.998487            1.092736           -0.386381
 C           -8.773370            1.733657           -1.630743
 C           -9.801658            2.519154           -2.204271
 C           -7.493071            1.561705           -2.275914
 C           -6.517890            0.803058           -1.706601
 C           -6.719081            0.140005           -0.438896
 C           -7.956833            0.289579            0.209053
 C           -8.201049           -0.357745            1.477074
 C           -7.214332           -1.124850            2.054673
 C           -5.947201           -1.290441            1.417416
 C           -4.927720           -2.088548            2.029219
 C           -3.709171           -2.253574            1.424493
 C           -3.444938           -1.626779            0.167267
 C           -2.117668           -1.837729           -0.461024
 C           -1.893615           -2.934039           -1.275908
 C           -2.928493           -3.919904           -1.558341
 C           -2.681258           -4.994434           -2.345317
 C           -1.376776           -5.189438           -2.943423
 C           -0.379363           -4.299579           -2.724037
 C           -0.584470           -3.133370           -1.875232
 C            0.429841           -2.236206           -1.629433
 C            0.227261           -1.101797           -0.780002
 C            1.268974           -0.197888           -0.516779
 C            1.080772            0.914025            0.318187
 C            2.132389            1.861579            0.590884
 C            3.451762            1.660935           -0.056997
 C            3.701213            2.316938           -1.302442
 C            4.907999            2.156507           -1.931283
 C            5.930017            1.334661           -1.356252
 C            7.183126            1.170499           -2.020926
 C            8.171490            0.379007           -1.480260
 C            9.457561            0.195693           -2.147262
 C           10.424776           -0.582593           -1.618265
 C           10.232284           -1.278686           -0.350726
 C            8.987410           -1.122098            0.334254
 C            8.778997           -1.787972            1.568336
 C            9.807962           -2.599632            2.102952
 C           11.008772           -2.742687            1.426009
 C           11.225565           -2.085350            0.200754
 C            7.513848           -1.615225            2.242629
 C            6.536475           -0.833713            1.709266
 C            6.720605           -0.145564            0.452343
 C            7.943994           -0.293984           -0.222572
 C            5.686865            0.681279           -0.119853
 C            4.419839            0.866364            0.515306
 C            1.912307            2.950995            1.415783
 C            2.948629            3.934585            1.701518
 C            2.705418            5.001673            2.499760
 C            1.403512            5.191633            3.105237
 C            0.404793            4.304265            2.882223
 C            0.605721            3.145225            2.022663
 C           -0.410160            2.251102            1.773074
 C           -0.210750            1.121320            0.916589
 C           -1.253428            0.219619            0.650415
 C           -1.065429           -0.892140           -0.185054
 C           -4.409543           -0.853470           -0.439151
 C           -5.688313           -0.663773            0.170420
 C           -9.502697           -0.176254            2.113794
 C          -10.468815            0.576994            1.548006
 H          -11.808090            3.266619           -1.998694
 H          -12.215164            2.154108            0.170070
 H           -9.628852            3.010881           -3.160091
 H           -7.333217            2.058301           -3.232713
 H           -5.551573            0.676955           -2.200441
 H           -7.384213           -1.620178            3.010199
 H           -5.142131           -2.562940            2.986693
 H           -2.926409           -2.858938            1.881654
 H           -3.910941           -3.760975           -1.109558
 H           -3.449558           -5.737746           -2.552652
 H           -1.232771           -6.068302           -3.569935
 H            0.606279           -4.426649           -3.170435
 H            1.414630           -2.374586           -2.076274
 H            2.246474           -0.368615           -0.973655
 H            2.915970            2.939120           -1.731946
 H            5.110460            2.651462           -2.880954
 H            7.340485            1.685550           -2.968170
 H            9.602801            0.715537           -3.094650
 H           11.383278           -0.718633           -2.119333
 H            9.647618           -3.111143            3.050482
 H           11.799256           -3.368956            1.839228
 H           12.177130           -2.213129           -0.312418
 H            7.367019           -2.130947            3.191351
 H            5.581350           -0.707744            2.224469
 H            4.228700            0.365985            1.467140
 H            3.928640            3.779492            1.246223
 H            3.474930            5.742811            2.710775
 H            1.262634            6.064845            3.740403
 H           -0.578975            4.427949            3.333739
 H           -1.393927            2.387799            2.222738
 H           -2.231609            0.390993            1.105617
 H           -4.206899           -0.375009           -1.399905
 H           -9.660895           -0.677407            3.069139
 H          -11.439459            0.710804            2.025839

