96

 C            7.630918           -3.163223           -2.872839
 C            8.397473           -1.990240           -2.736978
 C            7.925447           -0.922602           -1.977127
 C            6.651859           -1.013626           -1.330592
 C            5.889366           -2.197128           -1.483640
 C            6.395158           -3.269634           -2.257618
 C            4.603035           -2.261820           -0.840845
 C            4.133602           -1.223226           -0.097103
 C            4.885610           -0.006820            0.107153
 C            6.141235            0.078237           -0.531486
 C            6.953364            1.265453           -0.405259
 C            6.495682            2.319550            0.345579
 C            5.232332            2.258162            1.009147
 C            4.828775            3.400346            1.769779
 C            3.630649            3.407028            2.434724
 C            2.799316            2.263707            2.368474
 C            3.166166            1.142335            1.643124
 C            2.167546            0.043546            1.715072
 C            2.238901           -0.909812            2.717581
 C            3.345762           -0.965681            3.662967
 C            3.389537           -1.903274            4.639768
 C            2.330358           -2.881963            4.773683
 C            1.280400           -2.881852            3.918028
 C            1.184034           -1.901474            2.844848
 C            0.122603           -1.896555            1.968815
 C            0.033412           -0.932266            0.914166
 C           -1.042549           -0.936964            0.012419
 C           -1.135540            0.007136           -1.021733
 C           -2.232896            0.020376           -1.958663
 C           -3.229881           -1.080280           -1.891372
 C           -4.434142           -1.072375           -1.102998
 C           -5.238224           -2.247976           -1.171119
 C           -4.866677           -3.358476           -1.992455
 C           -3.715328           -3.322079           -2.734514
 C           -2.893529           -2.171381           -2.675373
 C           -6.446680           -2.359535           -0.417933
 C           -6.873982           -1.336325            0.391235
 C           -8.106285           -1.453932            1.166164
 C           -8.539231           -0.453327            1.959243
 C           -7.790479            0.792814            2.073215
 C           -6.577378            0.938640            1.327859
 C           -5.849140            2.148572            1.435141
 C           -6.325049            3.189294            2.269191
 C           -7.500541            3.028437            2.982792
 C           -8.235436            1.831512            2.887557
 C           -4.631828            2.275619            0.677611
 C           -4.187424            1.264242           -0.117217
 C           -4.894982            0.012756           -0.257331
 C           -6.093354           -0.124523            0.475404
 C           -2.301938            0.972754           -2.962984
 C           -3.406730            1.027275           -3.910541
 C           -3.449658            1.964666           -4.887709
 C           -2.391825            2.945091           -5.019047
 C           -1.344263            2.947014           -4.160224
 C           -1.249111            1.966483           -3.087240
 C           -0.190414            1.963569           -2.207581
 C           -0.102961            0.999176           -1.153320
 C            0.973038            1.003972           -0.251139
 C            1.066391            0.059339            0.781838
 C            4.407133            1.099091            0.915180
 C            8.246191            1.328212           -1.081846
 C            8.705389            0.299861           -1.822820
 H            8.020609           -3.987509           -3.469154
 H            9.364471           -1.925889           -3.233088
 H            5.802059           -4.176584           -2.363008
 H            4.009545           -3.167448           -0.969629
 H            3.145866           -1.324864            0.351328
 H            7.091620            3.226228            0.450490
 H            5.492822            4.263134            1.809070
 H            3.305775            4.269419            3.014653
 H            1.849821            2.276616            2.907940
 H            4.141904           -0.226945            3.549655
 H            4.216684           -1.951170            5.346700
 H            2.412108           -3.610365            5.579096
 H            0.475880           -3.611407            4.002644
 H           -0.679369           -2.629062            2.064195
 H           -1.823976           -1.693001            0.121751
 H           -5.517595           -4.231731           -2.016138
 H           -3.418205           -4.157526           -3.366358
 H           -1.974542           -2.155644           -3.265185
 H           -7.024166           -3.280347           -0.499858
 H           -8.660640           -2.388205            1.075097
 H           -9.458311           -0.539907            2.538675
 H           -5.756826            4.115219            2.342376
 H           -7.867193            3.828236            3.625349
 H           -9.156927            1.725822            3.457719
 H           -4.072011            3.207973            0.757610
 H           -3.259311            1.420008           -0.666112
 H           -4.202152            0.287589           -3.799029
 H           -4.275357            2.011428           -5.596262
 H           -2.472473            3.673031           -5.824951
 H           -0.540878            3.678155           -4.242449
 H            0.610503            2.697596           -2.300396
 H            1.754149            1.760339           -0.360531
 H            8.823624            2.245073           -0.961256
 H            9.669161            0.345940           -2.329758

