96

 C            9.826144            3.120774           -3.236206
 C           10.449335            2.751112           -2.010762
 C            9.779114            1.972487           -1.099691
 C            8.447767            1.518531           -1.357593
 C            7.829814            1.889076           -2.580142
 C            8.549599            2.700598           -3.514551
 C            6.500362            1.452747           -2.869074
 C            5.799959            0.674420           -1.975087
 C            4.440748            0.219978           -2.252387
 C            3.754621           -0.541146           -1.374769
 C            4.335837           -0.952092           -0.101137
 C            5.667237           -0.528136            0.207679
 C            6.264182           -0.912402            1.434463
 C            5.531260           -1.712390            2.343784
 C            4.244698           -2.117150            2.039563
 C            3.638745           -1.744354            0.817345
 C            2.263283           -2.230931            0.546508
 C            2.064225           -3.447084           -0.084762
 C            3.169352           -4.284426           -0.532605
 C            2.949733           -5.471764           -1.146466
 C            1.601429           -5.947001           -1.377456
 C            0.535331           -5.210450           -0.983261
 C            0.712052           -3.926230           -0.318288
 C           -0.366119           -3.173508            0.087945
 C           -0.186974           -1.911442            0.739862
 C           -1.288918           -1.145137            1.152258
 C           -1.123039            0.094298            1.789330
 C           -2.240721            0.895786            2.222116
 C           -3.613266            0.369988            2.017980
 C           -4.188791           -0.396700            3.057757
 C           -5.467483           -0.907982            2.935407
 C           -6.222695           -0.673922            1.761165
 C           -7.559210           -1.194857            1.603851
 C           -8.270381           -0.963581            0.467706
 C           -7.721152           -0.190698           -0.621604
 C           -6.422999            0.330593           -0.491082
 C           -5.843165            1.111602           -1.559323
 C           -6.564042            1.343010           -2.709255
 C           -7.884757            0.821170           -2.866700
 C           -8.626227            1.064681           -4.066947
 C           -9.894985            0.563585           -4.217825
 C          -10.488064           -0.206481           -3.177724
 C           -9.796138           -0.453570           -2.017637
 C           -8.472414            0.053391           -1.827942
 C           -4.492759            1.636518           -1.380224
 C           -3.785499            1.405255           -0.254721
 C           -4.333890            0.618774            0.844987
 C           -5.656901            0.090408            0.710135
 C           -2.043192            2.119334            2.839128
 C           -3.149522            2.957945            3.281508
 C           -2.931291            4.150002            3.886766
 C           -1.583490            4.628898            4.113609
 C           -0.516583            3.892214            3.721640
 C           -0.691391            2.603463            3.065159
 C            0.387601            1.848135            2.665627
 C            0.210274            0.582761            2.019640
 C            1.312274           -0.185208            1.609881
 C            1.146557           -1.425282            0.973933
 C            7.609240           -0.476075            1.722711
 C            8.299318            0.292897            0.838013
 C            7.718481            0.701724           -0.419374
 C            6.411103            0.287601           -0.724411
 H           10.379158            3.738307           -3.942228
 H           11.462482            3.096167           -1.811670
 H           10.255566            1.687621           -0.160000
 H            8.062668            2.976276           -4.449003
 H            6.051415            1.750658           -3.816030
 H            4.001710            0.522907           -3.203550
 H            2.736897           -0.876893           -1.588404
 H            5.991091           -2.007990            3.286061
 H            3.680151           -2.734212            2.740315
 H            4.182379           -3.917655           -0.355792
 H            3.773196           -6.099697           -1.483237
 H            1.481057           -6.908148           -1.874772
 H           -0.485694           -5.552428           -1.148518
 H           -1.384421           -3.525570           -0.079811
 H           -2.297154           -1.525096            0.970775
 H           -3.606340           -0.577894            3.962508
 H           -5.903357           -1.495124            3.742815
 H           -7.980463           -1.778346            2.422245
 H           -9.281419           -1.359964            0.352263
 H           -6.138486            1.930094           -3.522471
 H           -8.162128            1.655092           -4.855876
 H          -10.464479            0.744998           -5.127966
 H          -11.495655           -0.593373           -3.319672
 H          -10.249150           -1.043891           -1.219272
 H           -4.078128            2.226021           -2.198660
 H           -2.774561            1.800400           -0.127820
 H           -4.161983            2.589781            3.104801
 H           -3.755710            4.779942            4.217532
 H           -1.464279            5.593022            4.605500
 H            0.503941            4.236979            3.884567
 H            1.405462            2.201135            2.834421
 H            2.320600            0.194665            1.791205
 H            8.054552           -0.782100            2.669153
 H            9.317064            0.621163            1.059843

