96

 C           -8.427925           -0.330938           -3.340210
 C           -7.134705           -0.905985           -3.494108
 C           -6.260590           -0.938620           -2.435737
 C           -6.626083           -0.398673           -1.163006
 C           -7.916475            0.172477           -1.012841
 C           -8.809851            0.194160           -2.131148
 C           -8.314349            0.719544            0.245549
 C           -7.460677            0.703497            1.325833
 C           -7.850581            1.258375            2.619073
 C           -7.013100            1.240424            3.676955
 C           -5.676080            0.664576            3.580601
 C           -5.254255            0.111545            2.330941
 C           -3.958197           -0.453470            2.217964
 C           -3.104323           -0.459467            3.346370
 C           -3.527332            0.079776            4.550593
 C           -4.810824            0.642380            4.672585
 C           -3.557961           -1.010395            0.938989
 C           -2.211774           -1.620874            0.797206
 C           -2.023924           -2.968616            1.052688
 C           -3.106698           -3.837359            1.495037
 C           -2.899795           -5.154803            1.732724
 C           -1.589110           -5.742988            1.550241
 C           -0.544419           -4.982591            1.143553
 C           -0.707105           -3.559116            0.879620
 C            0.350553           -2.777825            0.473030
 C            0.185648           -1.378718            0.217840
 C            1.269601           -0.581397           -0.183915
 C            1.117004            0.790675           -0.435205
 C            2.216913            1.629025           -0.842721
 C            3.567450            1.022316           -0.956349
 C            4.379911            0.971330            0.139719
 C            5.701409            0.399088            0.079039
 C            6.157169           -0.116940           -1.144971
 C            7.476286           -0.697291           -1.243526
 C            8.289185           -0.745250           -0.133136
 C            7.847732           -0.227230            1.123040
 C            8.698510           -0.282494            2.273063
 C            8.274532            0.214946            3.479812
 C            6.979524            0.794129            3.599820
 C            6.145885            0.858535            2.510812
 C            6.555727            0.347989            1.239482
 C            7.911203           -1.221504           -2.535188
 C            7.113188           -1.173448           -3.622110
 C            5.775092           -0.595221           -3.560105
 C            5.309979           -0.070811           -2.313416
 C            4.011876            0.495355           -2.233273
 C            3.199175            0.531001           -3.391037
 C            3.664127            0.020029           -4.592096
 C            4.949772           -0.543853           -4.681541
 C            2.028017            2.975095           -1.105064
 C            3.113413            3.845667           -1.537524
 C            2.905048            5.161413           -1.783222
 C            1.590065            5.745731           -1.619376
 C            0.543259            4.983924           -1.221379
 C            0.707598            3.562341           -0.947831
 C           -0.350976            2.780837           -0.544571
 C           -0.184821            1.383176           -0.281408
 C           -1.268180            0.586542            0.122631
 C           -1.114688           -0.784859            0.378268
 C           -4.408425           -0.986575           -0.128599
 C           -5.729407           -0.417329           -0.033936
 C           -6.143108            0.126535            1.193019
 H           -9.102098           -0.316864           -4.195067
 H           -6.854256           -1.317113           -4.462401
 H           -5.268536           -1.380030           -2.550484
 H           -9.796856            0.635468           -2.001001
 H           -9.311202            1.150447            0.331597
 H           -8.849976            1.688116            2.692500
 H           -7.306992            1.655446            4.641396
 H           -2.106902           -0.894302            3.258617
 H           -2.864616            0.071044            5.415680
 H           -5.121695            1.060046            5.629033
 H           -4.091611           -3.385811            1.630642
 H           -3.706135           -5.806846            2.065479
 H           -1.478865           -6.807685            1.750268
 H            0.448168           -5.408275            1.000714
 H            1.341328           -3.212086            0.335338
 H            2.252178           -1.044405           -0.303408
 H            4.037456            1.371811            1.097945
 H            9.286160           -1.180222           -0.192976
 H            9.686961           -0.727334            2.168851
 H            8.916101            0.175177            4.358673
 H            6.665175            1.182951            4.566947
 H            5.152458            1.302991            2.599484
 H            8.910991           -1.653984           -2.582787
 H            7.440724           -1.565297           -4.585399
 H            2.199961            0.966132           -3.328487
 H            3.033131            0.051838           -5.480003
 H            5.293612           -0.939446           -5.636076
 H            4.101178            3.396505           -1.659228
 H            3.713146            5.814859           -2.108914
 H            1.478601            6.808985           -1.826379
 H           -0.452590            5.406656           -1.092848
 H           -1.343706            3.213366           -0.415566
 H           -2.251270            1.048840            0.240715
 H           -4.099031           -1.408470           -1.088803

