68

 C            8.091289            1.768864           -0.109807
 C            7.567185            1.500907           -1.408511
 C            6.378455            0.831166           -1.553725
 C            5.648788            0.392420           -0.402722
 C            4.409268           -0.309538           -0.526034
 C            3.729669           -0.723092            0.596836
 C            2.449306           -1.463809            0.481945
 C            2.443980           -2.845721            0.402968
 C            3.669099           -3.633816            0.436864
 C            3.639538           -4.985458            0.351038
 C            2.381644           -5.691652            0.223534
 C            1.211023           -5.011080            0.190535
 C            1.182663           -3.557178            0.279388
 C           -0.002674           -2.858839            0.245040
 C           -0.024177           -1.430084            0.329967
 C           -1.234829           -0.719940            0.292612
 C           -1.264994            0.680754            0.370424
 C           -2.494579            1.431232            0.324803
 C           -3.773492            0.693607            0.177934
 C           -4.279510            0.400601           -1.067794
 C           -5.519003           -0.300229           -1.197606
 C           -6.069318           -0.615927           -2.481023
 C           -7.261468           -1.288163           -2.578866
 C           -7.968066           -1.680552           -1.404187
 C           -7.463600           -1.390298           -0.161289
 C           -6.222302           -0.690782           -0.028519
 C           -5.671260           -0.374436            1.254588
 C           -4.481075            0.297547            1.357145
 C           -2.488841            2.812753            0.411928
 C           -3.713091            3.602145            0.374780
 C           -3.681936            4.954105            0.454245
 C           -2.423535            5.659784            0.580802
 C           -1.254183            4.977510            0.623956
 C           -1.227630            3.523260            0.542434
 C           -0.043285            2.823726            0.582506
 C           -0.022944            1.394984            0.499047
 C            1.187493            0.684798            0.537914
 C            1.218124           -0.715294            0.452573
 C            4.254341           -0.451896            1.900476
 C            5.441174            0.219182            2.040608
 C            6.170747            0.658897            0.889785
 C            7.412611            1.359543            1.010558
 H            9.037336            2.301672           -0.027975
 H            8.129311            1.837612           -2.278354
 H            5.970439            0.621518           -2.541543
 H            4.014365           -0.512462           -1.521304
 H            4.612562           -3.093138            0.534482
 H            4.552178           -5.578973            0.375177
 H            2.414675           -6.778058            0.156508
 H            0.255024           -5.524581            0.096189
 H           -0.954323           -3.382108            0.150668
 H           -2.171733           -1.273770            0.199968
 H           -3.745323            0.699487           -1.969514
 H           -5.522939           -0.311341           -3.372640
 H           -7.687751           -1.532382           -3.550739
 H           -8.912044           -2.211607           -1.515297
 H           -7.996358           -1.685193            0.741394
 H           -6.218988           -0.678663            2.145912
 H           -4.052299            0.543664            2.328404
 H           -4.657258            3.062230            0.280327
 H           -4.593961            5.548446            0.425842
 H           -2.455112            6.746671            0.639310
 H           -0.297761            5.490087            0.719763
 H            0.908778            3.346263            0.677625
 H            2.124065            1.238423            0.635886
 H            3.690423           -0.791458            2.769014
 H            5.850602            0.428757            3.028299
 H            7.805186            1.559105            2.006449

