68

 C           -8.004568            0.531867            2.034813
 C           -7.473212           -0.433878            1.217589
 C           -6.225227           -0.213705            0.553003
 C           -5.646265           -1.202155           -0.305810
 C           -4.448772           -0.969645           -0.930978
 C           -3.761102            0.269575           -0.731940
 C           -2.469866            0.491962           -1.427718
 C           -2.439290            1.074529           -2.682887
 C           -3.649985            1.480854           -3.384427
 C           -3.594224            2.056439           -4.609504
 C           -2.321841            2.285725           -5.262151
 C           -1.164323            1.924285           -4.658620
 C           -1.163912            1.300294           -3.342284
 C            0.008466            0.931296           -2.722679
 C            0.003033            0.320476           -1.427998
 C            1.199842           -0.055402           -0.797042
 C            1.202365           -0.651970            0.473212
 C            2.418258           -1.040816            1.142349
 C            3.714932           -0.790109            0.466597
 C            4.240040           -1.790609           -0.411690
 C            5.444960           -1.597083           -1.035765
 C            6.193623           -0.395694           -0.820737
 C            7.455490           -0.172783           -1.457501
 C            8.152195            0.987595           -1.231190
 C            7.626972            1.986014           -0.359200
 C            6.418861            1.798914            0.263746
 C            5.670466            0.597980            0.047077
 C            4.411587            0.375936            0.687742
 C            2.384854           -1.635035            2.392286
 C            3.593575           -2.050258            3.092355
 C            3.535705           -2.623677            4.318309
 C            2.262884           -2.842704            4.973618
 C            1.106580           -2.480683            4.368307
 C            1.108645           -1.862135            3.049421
 C           -0.062578           -1.492847            2.428368
 C           -0.054673           -0.883585            1.133072
 C           -1.251294           -0.508426            0.502134
 C           -1.253388            0.092832           -0.765744
 C           -4.295260            1.237245            0.087950
 C           -5.543068            1.015187            0.749751
 C           -6.121738            2.004794            1.607277
 C           -7.320084            1.767120            2.231724
 H           -8.953568            0.373404            2.544168
 H           -7.988864           -1.380053            1.060885
 H           -6.177802           -2.141866           -0.451734
 H           -3.999188           -1.714972           -1.586794
 H           -4.604405            1.302785           -2.885093
 H           -4.496178            2.362091           -5.137481
 H           -2.333346            2.754023           -6.245145
 H           -0.198083            2.087647           -5.134068
 H            0.970165            1.099172           -3.207862
 H            2.148337            0.122528           -1.308804
 H            3.662673           -2.701808           -0.566954
 H            5.854189           -2.353806           -1.704172
 H            7.848516           -0.941031           -2.121606
 H            9.113370            1.165392           -1.710425
 H            8.203981            2.895522           -0.199288
 H            6.009857            2.555736            0.931565
 H            4.016105            1.142222            1.354326
 H            4.548386           -1.882565            2.590125
 H            4.436262           -2.935525            4.845110
 H            2.272973           -3.304693            5.959577
 H            0.139601           -2.638028            4.844272
 H           -1.025054           -1.656604            2.913462
 H           -2.199983           -0.689447            1.012566
 H           -3.776481            2.183190            0.243013
 H           -5.591845            2.945309            1.751241
 H           -7.768181            2.513856            2.885381

