100

 C            3.867000           -3.095253           -4.547263
 C            2.672130           -2.279140           -4.481765
 C            2.535824           -1.327325           -3.528166
 C            3.581068           -1.086983           -2.541062
 C            4.778813           -1.912881           -2.606243
 C            4.868602           -2.922991           -3.652451
 C            5.802993           -1.734660           -1.705318
 C            5.707366           -0.733861           -0.686892
 N            6.736551           -0.573053            0.192304
 C            6.614933            0.387329            1.145404
 C            7.672464            0.597359            2.092441
 C            7.556915            1.563366            3.063494
 C            8.617274            1.792056            4.037405
 C            8.495764            2.742407            4.993917
 C            7.303759            3.564343            5.075741
 C            6.287711            3.398341            4.196617
 C            6.357613            2.390766            3.145371
 C            5.329233            2.214993            2.250874
 C            5.419823            1.214606            1.224634
 N            4.395968            1.055508            0.347359
 C            4.516129            0.096397           -0.610873
 C            3.457825           -0.105631           -1.572445
 C            2.262169            0.772210           -1.510465
 C            2.235262            1.958006           -2.225354
 C            3.356049            2.405309           -3.041902
 C            3.300751            3.565502           -3.739209
 C            2.118818            4.400900           -3.692259
 C            1.047952            4.036678           -2.947146
 C            1.052227            2.800580           -2.176242
 C           -0.032742            2.424297           -1.417839
 C           -0.024685            1.208063           -0.662921
 C           -1.132251            0.829404            0.112979
 C           -1.130821           -0.356457            0.863019
 C           -2.249889           -0.760111            1.677390
 C           -3.444236            0.119323            1.740344
 C           -4.515584           -0.097949            0.796722
 N           -4.409383           -1.073284           -0.146717
 C           -5.443713           -1.243598           -1.009520
 C           -5.367971           -2.260633           -2.020569
 C           -6.405675           -2.445179           -2.902521
 C           -6.350822           -3.468975           -3.938900
 C           -7.375257           -3.641941           -4.806933
 C           -8.561801           -2.811934           -4.727360
 C           -8.670121           -1.847554           -3.783442
 C           -7.600206           -1.610778           -2.822024
 C           -7.702735           -0.630637           -1.863776
 C           -6.635136           -0.410995           -0.930376
 N           -6.743784            0.564025            0.009318
 C           -5.704146            0.736009            0.873960
 C           -5.785439            1.753553            1.876971
 C           -4.748542            1.946626            2.760159
 C           -4.821792            2.976079            3.788747
 C           -3.805734            3.165318            4.663641
 C           -2.612642            2.346845            4.595282
 C           -2.492325            1.376137            3.658831
 C           -3.552643            1.118372            2.692545
 C           -2.219956           -1.941779            2.398985
 C           -3.335869           -2.382488            3.225683
 C           -3.277118           -3.538243            3.930114
 C           -2.096847           -4.375752            3.880351
 C           -1.030902           -4.017874            3.125078
 C           -1.038392           -2.786192            2.347304
 C            0.042758           -2.414842            1.580891
 C            0.033271           -1.200845            0.822519
 C            1.139996           -0.823203            0.044754
 C            1.139986            0.364318           -0.702515
 H            3.927291           -3.845218           -5.335145
 H            1.893068           -2.459435           -5.221476
 H            1.635927           -0.709980           -3.467423
 H            5.773208           -3.529996           -3.684407
 H            6.711508           -2.340775           -1.738973
 H            8.559361           -0.034947            2.009268
 H            9.507299            1.167239            3.962404
 H            9.282680            2.919193            5.726497
 H            7.259759            4.313781            5.865288
 H            5.385848            4.009039            4.243875
 H            4.419714            2.820425            2.287427
 H            4.245775            1.774421           -3.066556
 H            4.136846            3.903213           -4.349465
 H            2.125986            5.322870           -4.271190
 H            0.151005            4.652772           -2.898337
 H           -0.924417            3.050005           -1.375027
 H           -2.013721            1.472887            0.126732
 H           -4.461983           -2.871377           -2.056208
 H           -5.453338           -4.086198           -3.984480
 H           -7.342420           -4.403322           -5.585437
 H           -9.355633           -2.994397           -5.450927
 H           -9.556251           -1.217027           -3.709738
 H           -8.586525            0.006082           -1.781131
 H           -6.693303            2.360505            1.912971
 H           -5.726098            3.583345            3.824021
 H           -3.852955            3.930687            5.437547
 H           -1.821661            2.541017            5.318771
 H           -1.594323            0.756186            3.596447
 H           -4.224990           -1.750815            3.251963
 H           -4.109599           -3.870897            4.548051
 H           -2.101282           -5.294218            4.464836
 H           -0.135623           -4.636130            3.073251
 H            0.932840           -3.042594            1.535389
 H            2.020272           -1.468241            0.028898

