102

 C            1.143586            2.665787           -1.356235
 C            2.125680            3.087467           -0.504043
 C            3.284047            2.255347           -0.334571
 C            4.333938            2.238896            0.572682
 C            4.880998            3.167971            1.543410
 C            4.121222            4.274223            1.964086
 C            4.649569            5.168210            2.897332
 C            5.933561            4.970991            3.414804
 C            6.692221            3.871906            2.997955
 C            6.172124            2.971176            2.068340
 O            5.009277            1.001337            0.492063
 C            4.359306            0.248407           -0.487412
 C            4.712962           -1.159161           -0.621818
 C            5.789338           -1.540238           -1.435753
 C            6.071861           -2.893030           -1.636155
 C            5.275668           -3.869258           -1.029301
 C            4.208932           -3.496657           -0.208541
 C            3.920418           -2.140784            0.014287
 C            2.824200           -1.800319            0.959402
 C            3.132397           -1.469049            2.270328
 C            4.504031           -1.339843            2.746266
 C            4.778936           -1.003852            4.029683
 C            3.711619           -0.766243            4.978428
 C            2.417344           -0.883947            4.597338
 C            2.064964           -1.245772            3.231169
 C            0.750753           -1.389579            2.849289
 C            0.403300           -1.714315            1.500350
 C           -0.942198           -1.867371            1.122345
 C           -1.307443           -2.134630           -0.204603
 C           -2.678447           -2.352605           -0.609960
 C           -3.713374           -2.543176            0.439388
 C           -3.626631           -3.720058            1.208352
 C           -4.584734           -4.016059            2.176014
 C           -5.653938           -3.139133            2.394220
 C           -5.750133           -1.966175            1.649172
 C           -4.784123           -1.655269            0.671642
 C           -4.948250           -0.399917           -0.048133
 C           -5.986505            0.229146           -0.718011
 C           -7.339727           -0.141336           -1.016009
 C           -8.120299            0.728338           -1.714687
 C           -7.616960            2.011211           -2.160777
 C           -6.337875            2.403581           -1.908278
 C           -5.474420            1.519066           -1.179729
 C           -4.160799            1.596692           -0.760103
 C           -2.975780            2.424213           -0.897860
 C           -2.171410            2.620830            0.240759
 C           -0.824554            2.929982            0.081137
 C           -0.282466            3.025846           -1.215988
 C           -1.148566            3.114142           -2.320368
 C           -2.499841            2.802718           -2.164943
 O           -3.824820            0.424323           -0.051701
 C           -3.000819           -2.490942           -1.950385
 C           -4.365276           -2.704849           -2.416111
 C           -4.655540           -2.812347           -3.734952
 C           -3.610275           -2.723925           -4.732772
 C           -2.319763           -2.553598           -4.359678
 C           -1.948634           -2.448438           -2.954442
 C           -0.631392           -2.333649           -2.574461
 C           -0.266490           -2.191152           -1.197574
 C            1.081156           -2.099411           -0.810483
 C            1.450021           -1.881030            0.526221
 C            3.352012            0.994621           -1.064626
 C            2.428621            0.723188           -2.127899
 C            1.366715            1.552138           -2.277266
 H            1.007127            7.568140           -0.770403
 H            2.020989            3.973093            0.120365
 H            3.118816            4.430794            1.562959
 H            4.056887            6.021639            3.223403
 H            6.342156            5.671087            4.141075
 H            7.692719            3.718441            3.399680
 H            6.758345            2.110980            1.743016
 H            6.400761           -0.773786           -1.913273
 H            6.909556           -3.186194           -2.266859
 H            5.489636           -4.925232           -1.192941
 H            3.595747           -4.260833            0.270846
 H            5.306632           -1.508878            2.026199
 H            5.803435           -0.898441            4.382994
 H            3.986678           -0.489742            5.994846
 H            1.599416           -0.708401            5.294803
 H           -0.055384           -1.251063            3.569974
 H           -1.720483           -1.760852            1.881087
 H           -2.797576           -4.408647            1.035246
 H           -4.502729           -4.931344            2.761163
 H           -6.405854           -3.371400            3.146637
 H           -6.574621           -1.273058            1.824079
 H           -7.701177           -1.108748           -0.676045
 H           -9.152273            0.484023           -1.960434
 H           -8.303914            2.653899           -2.708690
 H           -5.943972            3.363136           -2.234641
 H           -2.586558            2.448153            1.233616
 H           -0.174893            3.000346            0.953096
 H            1.367435            7.394500           -0.119692
 H           -0.750532            3.350036           -3.305692
 H           -3.164098            2.776771           -3.027407
 H           -5.153100           -2.769193           -1.663977
 H           -5.676371           -2.964121           -4.081940
 H           -3.899426           -2.798247           -5.779693
 H           -1.518845           -2.485764           -5.094490
 H            0.163757           -2.341508           -3.319255
 H            1.859036           -2.186933           -1.570386
 H            2.604489           -0.136386           -2.769525
 H            0.627011            1.384718           -3.059349

