100

 C          -14.385897            3.289627            0.913460
 C          -13.770881            2.104547            0.685019
 C          -12.349913            2.046854            0.385031
 C          -11.673414            0.874598            0.144080
 C          -10.268651            0.895215           -0.146737
 C           -9.530294           -0.266865           -0.402549
 C           -8.154126           -0.184924           -0.684928
 N           -7.455723           -1.365851           -0.938582
 C           -6.154561           -1.299685           -1.211376
 C           -5.425369           -2.539072           -1.482192
 C           -4.105191           -2.513688           -1.771199
 C           -3.372833           -1.255480           -1.819987
 C           -1.930269           -1.296876           -2.159099
 C           -1.516821           -1.166254           -3.473730
 C           -2.456163           -1.024748           -4.578468
 C           -2.025177           -0.878504           -5.854490
 C           -0.609641           -0.862274           -6.160644
 C            0.308770           -0.999638           -5.174546
 C           -0.097096           -1.159756           -3.784768
 C            0.830477           -1.291180           -2.776543
 C            0.426550           -1.439189           -1.411231
 C            1.374890           -1.565056           -0.383694
 C            0.988025           -1.695575            0.958622
 C            1.945909           -1.796664            2.030895
 C            3.387810           -1.715439            1.696277
 C            4.114922           -2.957566            1.472277
 C            5.430626           -2.946946            1.162615
 C            6.160082           -1.683903            1.044078
 N            7.455208           -1.715080            0.738510
 C            8.151806           -0.511517            0.622957
 C            9.520902           -0.556473            0.301166
 C           10.255464            0.629171            0.173832
 C           11.652669            0.646456           -0.151129
 C           12.324674            1.840514           -0.264496
 C           13.737919            1.936816           -0.589802
 C           14.348290            3.142005           -0.689094
 C           13.611476            4.373683           -0.474573
 C           12.294084            4.354803           -0.168767
 C           11.581029            3.084136           -0.046881
 N           10.285248            3.106770            0.256621
 C            9.598206            1.899751            0.374095
 C            8.229967            1.945514            0.696946
 C            7.497711            0.760567            0.825148
 C            6.102384            0.753406            1.154149
 C            5.424709           -0.436457            1.267798
 C            4.014928           -0.514162            1.598089
 C            1.534792           -1.938527            3.344439
 C            2.476953           -2.047256            4.450626
 C            2.048572           -2.166919            5.730149
 C            0.633323           -2.195748            6.037296
 C           -0.287475           -2.105555            5.048086
 C            0.114870           -1.970901            3.654411
 C           -0.814823           -1.863218            2.645397
 C           -0.414135           -1.721737            1.277974
 C           -1.362540           -1.599983            0.250035
 C           -0.975461           -1.449199           -1.090703
 C           -3.998208           -0.075672           -1.569043
 C           -5.413513           -0.036446           -1.255534
 C           -6.093085            1.131076           -1.003753
 C           -7.495841            1.100735           -0.709567
 C           -8.232337            2.262143           -0.452761
 C           -9.608242            2.179664           -0.173055
 N          -10.300331            3.364443            0.072767
 C          -11.603371            3.306888            0.337871
 C          -12.322154            4.554386            0.593241
 C          -13.646706            4.537579            0.866280
 H          -15.450377            3.344916            1.138886
 H          -14.315597            1.161289            0.717778
 H          -12.185727           -0.088470            0.168002
 H          -10.010918           -1.247834           -0.387565
 H           -5.999805           -3.467348           -1.440018
 H           -3.545271           -3.427778           -1.977966
 H           -3.521263           -1.042881           -4.340701
 H           -2.724493           -0.770859           -6.682842
 H           -0.316833           -0.737957           -7.202254
 H            1.377620           -0.992500           -5.385750
 H            1.897782           -1.281043           -3.000032
 H            2.436599           -1.558477           -0.639239
 H            3.554454           -3.889894            1.564163
 H            6.000677           -3.862697            0.989446
 H            9.999141           -1.527546            0.153232
 H           12.163070           -0.305727           -0.304209
 H           14.280787            1.005383           -0.748969
 H           15.406970            3.226204           -0.932110
 H           14.158786            5.312121           -0.569157
 H           11.712157            5.263498           -0.001900
 H            7.751913            2.916735            0.845234
 H            5.598586            1.708899            1.310301
 H            3.478935            0.421594            1.763594
 H            3.541414           -2.028560            4.210126
 H            2.749591           -2.245165            6.560451
 H            0.342819           -2.292351            7.082493
 H           -1.355965           -2.127675            5.260134
 H           -1.881740           -1.879537            2.870423
 H           -2.424622           -1.620981            0.503070
 H           -3.457776            0.871604           -1.599563
 H           -5.585421            2.097050           -1.023645
 H           -7.751723            3.243294           -0.467145
 H          -11.738361            5.476142            0.550641
 H          -14.198408            5.458286            1.058774

