100

 C            5.160861            7.063846            3.056668
 C            6.345083            7.302909            2.252615
 C            6.803220            6.369222            1.387765
 C            6.110379            5.089489            1.243308
 N            6.591568            4.194881            0.382977
 C            5.935777            2.972239            0.241082
 C            6.458384            2.037838           -0.670893
 C            5.833566            0.797112           -0.842828
 C            6.320965           -0.195521           -1.754400
 C            5.672305           -1.400704           -1.884113
 C            6.125582           -2.441388           -2.790431
 C            5.458437           -3.615516           -2.885850
 C            4.277204           -3.866893           -2.088707
 C            3.795155           -2.940928           -1.218557
 C            2.588211           -3.236486           -0.407943
 C            2.710425           -3.800114            0.850610
 C            4.003281           -4.067778            1.466761
 C            4.095848           -4.633499            2.694308
 C            2.904277           -4.991106            3.435280
 C            1.675380           -4.760797            2.914469
 C            1.516221           -4.155242            1.599100
 C            0.270215           -3.930840            1.059668
 C            0.117942           -3.337183           -0.233867
 C           -1.154277           -3.116523           -0.785901
 C           -1.313762           -2.527007           -2.049167
 C           -2.609092           -2.310778           -2.644586
 C           -3.808639           -2.822958           -1.937312
 C           -4.279459           -4.068632           -2.208690
 C           -5.449036           -4.599070           -1.541912
 C           -6.114506           -3.867812           -0.617096
 C           -5.669871           -2.529828           -0.267618
 C           -6.311780           -1.756060            0.670156
 C           -5.830025           -0.442464            0.980483
 C           -6.440455            0.381139            1.933652
 C           -5.920305            1.660546            2.199271
 N           -6.556043            2.445411            3.161051
 C           -6.074851            3.658167            3.425361
 C           -6.744909            4.475127            4.436474
 C           -6.285466            5.712502            4.732409
 C           -5.123101            6.261990            4.059364
 C           -4.463613            5.550217            3.114225
 C           -4.900784            4.213687            2.746783
 C           -4.269911            3.446503            1.796985
 C           -4.756091            2.133250            1.485598
 C           -4.147538            1.310191            0.531068
 C           -4.664748            0.027491            0.269169
 N           -4.021218           -0.761959           -0.682509
 C           -4.488672           -1.979456           -0.940997
 C           -2.733973           -1.681536           -3.871377
 C           -4.027213           -1.415386           -4.487077
 C           -4.121573           -0.812832           -5.696873
 C           -2.931582           -0.414399           -6.419317
 C           -1.702644           -0.629762           -5.892086
 C           -1.541650           -1.269283           -4.593120
 C           -0.295143           -1.496544           -4.055721
 C           -0.140988           -2.124953           -2.778932
 C            1.131636           -2.357490           -2.232414
 C            1.291704           -2.966136           -0.978318
 C            4.475404           -1.643656           -1.071728
 N            3.996167           -0.743643           -0.218443
 C            4.648497            0.480659           -0.081178
 C            4.123666            1.417052            0.829454
 C            4.749264            2.657008            1.003270
 C            4.261396            3.647634            1.919114
 C            4.913931            4.849559            2.054731
 C            4.478845            5.897256            2.963400
 H            4.845022            7.856211            3.734354
 H            6.849909            8.262075            2.372874
 H            7.690705            6.520869            0.770262
 H            7.355151            2.295025           -1.239160
 H            7.214929            0.029839           -2.338092
 H            7.016934           -2.239542           -3.384061
 H            5.786184           -4.406839           -3.559954
 H            3.782474           -4.833157           -2.207855
 H            4.895424           -3.786231            0.906293
 H            5.060009           -4.831124            3.159370
 H            3.034105           -5.444448            4.416359
 H            0.767950           -5.018551            3.458810
 H           -0.630178           -4.199733            1.611567
 H           -2.037326           -3.401446           -0.211637
 H           -3.783789           -4.706021           -2.944022
 H           -5.769098           -5.604596           -1.814841
 H           -6.997267           -4.254520           -0.108377
 H           -7.195048           -2.122762            1.195477
 H           -7.322699            0.042482            2.481499
 H           -7.616689            4.036038            4.925420
 H           -6.773240            6.334788            5.483479
 H           -4.805082            7.264514            4.343337
 H           -3.590053            5.951449            2.600550
 H           -3.392439            3.815460            1.263414
 H           -3.265588            1.647615           -0.020354
 H           -4.918730           -1.709557           -3.932072
 H           -5.086290           -0.607178           -6.157248
 H           -3.062568            0.061506           -7.389507
 H           -0.796651           -0.332703           -6.418557
 H            0.603894           -1.197532           -4.594133
 H            2.013867           -2.047267           -2.794651
 H            3.224054            1.158372            1.394574
 H            3.366007            3.421494            2.500309
 H            3.588337            5.704809            3.561607

