100

 C            7.511383           -6.058813           -3.406014
 C            7.960570           -4.941723           -2.785870
 C            7.078217           -4.149026           -1.945974
 C            7.480743           -3.008849           -1.293398
 C            6.554052           -2.275041           -0.480362
 C            6.913274           -1.109689            0.205523
 C            5.963649           -0.428860            0.989205
 N            6.365577            0.726642            1.656641
 C            5.480863            1.383991            2.404193
 C            5.921671            2.592886            3.096704
 C            5.057166            3.294242            3.864883
 C            3.682955            2.869682            4.024229
 C            3.215262            1.751283            3.407333
 C            1.802067            1.338886            3.596916
 C            1.451117            0.485487            4.628364
 C            2.438005           -0.112628            5.517688
 C            2.066198           -0.924127            6.536643
 C            0.669247           -1.227353            6.770428
 C           -0.290602           -0.709476            5.967401
 C            0.050502            0.170285            4.857598
 C           -0.920427            0.712982            4.047384
 C           -0.580537            1.582293            2.961747
 C           -1.572970            2.142877            2.142453
 C           -1.247270            2.998459            1.078774
 C           -2.250514            3.609664            0.244413
 C           -3.679538            3.382138            0.574603
 C           -4.384127            2.270495           -0.057037
 C           -3.798195            1.401244           -0.947011
 C           -4.559833            0.335586           -1.529726
 C           -4.010814           -0.572596           -2.443363
 C           -4.805801           -1.598321           -2.986358
 N           -4.218505           -2.479376           -3.894191
 C           -4.957105           -3.455440           -4.416032
 C           -4.335639           -4.376693           -5.367075
 C           -5.054812           -5.381280           -5.917629
 C           -6.454254           -5.573056           -5.584093
 C           -7.081445           -4.750189           -4.710344
 C           -6.370667           -3.650089           -4.080142
 C           -6.956914           -2.785714           -3.187532
 C           -6.193242           -1.720819           -2.603086
 C           -6.741935           -0.813860           -1.690078
 C           -5.946919            0.212779           -1.147667
 N           -6.533866            1.095133           -0.242632
 C           -5.796491            2.074613            0.278324
 C           -6.427863            2.991176            1.225080
 C           -5.716305            3.999773            1.778511
 C           -4.321150            4.201387            1.450189
 C           -1.895997            4.416074           -0.823284
 C           -2.883845            5.027892           -1.701940
 C           -2.511137            5.823991           -2.732779
 C           -1.111716            6.089889           -2.995089
 C           -0.149690            5.542004           -2.214756
 C           -0.491876            4.678693           -1.092599
 C            0.479710            4.125255           -0.290102
 C            0.138175            3.276968            0.811199
 C            1.130449            2.720365            1.633984
 C            0.802931            1.890370            2.716747
 C            4.090784            0.947640            2.559810
 C            3.687504           -0.190790            1.902456
 C            4.611907           -0.926873            1.089707
 C            4.253064           -2.093461            0.403481
 C            5.202919           -2.775840           -0.379052
 N            4.802848           -3.934987           -1.043290
 C            5.689386           -4.590527           -1.788621
 C            5.263996           -5.805510           -2.482918
 C            6.136781           -6.497630           -3.250227
 H            8.163324           -6.660696           -4.038325
 H            8.989802           -4.600683           -2.893962
 H            8.503713           -2.639233           -1.378086
 H            7.929545           -0.714302            0.142951
 H            6.964094            2.887437            2.960034
 H            5.367260            4.199190            4.389025
 H            3.034315            3.476205            4.657491
 H            3.489083            0.114082            5.329634
 H            2.800918           -1.372157            7.204722
 H            0.424509           -1.882167            7.605637
 H           -1.346038           -0.930002            6.124706
 H           -1.974642            0.492162            4.219300
 H           -2.620784            1.905791            2.340069
 H           -2.745647            1.505433           -1.226839
 H           -2.962937           -0.496365           -2.745196
 H           -3.281912           -4.208131           -5.598956
 H           -4.607148           -6.076984           -6.627725
 H           -6.976670           -6.401029           -6.062232
 H           -8.131457           -4.882448           -4.450996
 H           -8.005797           -2.888330           -2.905584
 H           -7.788666           -0.888812           -1.387295
 H           -7.481583            2.817335            1.452116
 H           -6.170643            4.693406            2.487242
 H           -3.802118            5.033447            1.927339
 H           -3.936079            4.817564           -1.501727
 H           -3.246858            6.283037           -3.392161
 H           -0.866607            6.737833           -3.835547
 H            0.908138            5.727960           -2.398511
 H            1.535416            4.324502           -0.478568
 H            2.179395            2.940585            1.423241
 H            2.659380           -0.555223            1.986112
 H            3.235428           -2.487634            0.466300
 H            4.224456           -6.111442           -2.347669
 H            5.836040           -7.404918           -3.774680

