100

 C           -3.630397            5.392509           -2.891305
 C           -2.472861            4.607788           -3.274180
 C           -2.368472            3.304242           -2.921879
 C           -3.411365            2.649310           -2.149616
 C           -4.578924            3.443198           -1.761594
 C           -4.637017            4.845040           -2.172062
 N           -5.589474            2.948521           -1.049384
 C           -5.546768            1.613014           -0.651667
 C           -6.622783            1.114713            0.104878
 C           -6.629603           -0.218303            0.531939
 C           -7.693844           -0.777702            1.314067
 C           -7.647707           -2.093873            1.707542
 C           -8.684618           -2.725202            2.506790
 C           -8.587891           -4.027543            2.866230
 C           -7.449548           -4.831859            2.462089
 C           -6.450067           -4.305237            1.717946
 C           -6.494814           -2.903256            1.303806
 N           -5.489358           -2.417255            0.579471
 C           -5.526875           -1.081451            0.182922
 C           -4.450372           -0.581669           -0.574590
 C           -4.437493            0.753186           -0.995028
 C           -3.355888            1.324205           -1.763028
 C           -2.199393            0.460978           -2.110288
 C           -2.166556           -0.225416           -3.312028
 C           -3.226948           -0.115971           -4.304739
 C           -3.171301           -0.801338           -5.471914
 C           -2.049412           -1.667298           -5.770303
 C           -1.034643           -1.807386           -4.884120
 C           -1.043985           -1.099953           -3.610503
 C           -0.027997           -1.254320           -2.694838
 C           -0.040701           -0.556141           -1.444721
 C            0.984549           -0.735894           -0.501935
 C            0.981473           -0.051948            0.723479
 C            1.992399           -0.257421            1.730819
 C            3.019485           -1.303605            1.497189
 C            4.304201           -0.939957            0.950643
 C            4.649343            0.374648            0.613666
 C            5.922238            0.666379            0.087324
 N            6.220286            1.991039           -0.230826
 C            7.420327            2.281189           -0.728256
 C            7.728262            3.672160           -1.060097
 C            8.937555            4.004408           -1.567337
 C            9.958443            2.998358           -1.795638
 C            9.729329            1.695111           -1.507373
 C            8.452704            1.266925           -0.960102
 C            8.166403           -0.040364           -0.649376
 C            6.884082           -0.391678           -0.111066
 C            6.541781           -1.705946            0.223358
 C            5.269911           -1.996380            0.749742
 N            4.986540           -3.323462            1.065587
 C            3.791041           -3.626365            1.568395
 C            3.506999           -5.021617            1.897941
 C            2.306167           -5.375040            2.411478
 C            1.274279           -4.384622            2.647305
 C            1.485569           -3.077996            2.360091
 C            2.751160           -2.624811            1.806291
 C            1.978719            0.460857            2.914565
 C            2.982966            0.276266            3.953702
 C            2.941473            0.986427            5.106635
 C            1.893283            1.957864            5.341812
 C            0.930967            2.168808            4.412414
 C            0.920876            1.428372            3.157765
 C           -0.070226            1.615109            2.221581
 C           -0.079653            0.881007            0.992355
 C           -1.112654            1.049313            0.056583
 C           -1.129676            0.336446           -1.151911
 H           -3.657789            6.436627           -3.204536
 H           -1.695132            5.104997           -3.852506
 H           -1.501065            2.703089           -3.203947
 H           -5.520654            5.409945           -1.869579
 H           -7.449629            1.783989            0.353264
 H           -8.532351           -0.135767            1.587098
 H           -9.534894           -2.110586            2.802247
 H           -9.357605           -4.511535            3.466656
 H           -7.432120           -5.874470            2.780604
 H           -5.582641           -4.885926            1.397571
 H           -3.624224           -1.256365           -0.825864
 H           -4.069175            0.538596           -4.074105
 H           -3.963486           -0.723254           -6.215942
 H           -2.055868           -2.195095           -6.723088
 H           -0.182246           -2.453568           -5.092844
 H            0.811821           -1.918792           -2.903930
 H            1.797967           -1.427647           -0.731666
 H            3.934911            1.193095            0.755360
 H            6.941844            4.407494           -0.878046
 H            9.183787            5.035911           -1.820719
 H           10.911059            3.332079           -2.205970
 H           10.486266            0.928669           -1.673668
 H            8.900585           -0.832138           -0.803474
 H            7.254139           -2.522049            0.081795
 H            4.303235           -5.743773            1.709233
 H            2.077714           -6.411189            2.662677
 H            0.327267           -4.729683            3.060613
 H            0.713053           -2.324808            2.532687
 H            3.771819           -0.455065            3.769756
 H            3.690106            0.849651            5.886468
 H            1.910959            2.505002            6.283558
 H            0.134839            2.895710            4.572184
 H           -0.876502            2.328097            2.400525
 H           -1.919515            1.750247            0.281497

