100

 C           -6.424024            4.247680            1.390965
 C           -7.512894            3.567965            2.066687
 C           -7.598609            2.217461            2.074705
 C           -6.585350            1.409429            1.399177
 N           -6.696276            0.081649            1.428820
 C           -5.731822           -0.693275            0.787343
 C           -5.873448           -2.092353            0.831300
 C           -4.932237           -2.914875            0.206318
 C           -5.036382           -4.346783            0.227680
 C           -4.091372           -5.122337           -0.397394
 C           -4.129062           -6.575265           -0.414544
 C           -3.165190           -7.286169           -1.046574
 C           -2.069639           -6.620583           -1.727785
 C           -1.976213           -5.271554           -1.750903
 C           -2.984844           -4.448673           -1.083078
 N           -2.858375           -3.125684           -1.124210
 C           -3.811477           -2.329126           -0.491342
 C           -3.667916           -0.921834           -0.544999
 C           -2.532000           -0.318695           -1.286223
 C           -2.681647            0.038282           -2.616120
 C           -3.928242           -0.159669           -3.343714
 C           -4.050776            0.201985           -4.643554
 C           -2.939476            0.801951           -5.351791
 C           -1.755408            1.007217           -4.726504
 C           -1.564898            0.631960           -3.331646
 C           -0.361016            0.824909           -2.692752
 C           -0.178492            0.451680           -1.322763
 C            1.056934            0.634672           -0.679721
 C            1.245957            0.273699            0.662791
 C            2.510056            0.432944            1.338993
 C            3.668093            0.947995            0.566053
 C            3.977368            2.328680            0.567204
 N            3.165195            3.199622            1.292421
 C            3.447108            4.499001            1.298792
 C            2.585165            5.401321            2.062737
 C            2.837633            6.729731            2.088851
 C            3.963048            7.295153            1.366895
 C            4.796580            6.507784            0.646524
 C            4.584809            5.071586            0.572902
 C            5.392569            4.222424           -0.141900
 C            5.118799            2.813104           -0.174223
 C            5.916455            1.919582           -0.893517
 C            5.609438            0.546319           -0.904282
 N            6.432201           -0.301928           -1.642620
 C            6.159441           -1.606440           -1.670490
 C            7.022056           -2.491748           -2.450084
 C            6.769820           -3.820358           -2.501668
 C            5.647221           -4.400336           -1.789393
 C            4.816254           -3.625881           -1.050902
 C            5.026675           -2.191664           -0.953095
 C            4.212270           -1.358668           -0.222025
 C            4.471596            0.050486           -0.167999
 C            2.655720            0.092696            2.673166
 C            3.913946            0.255242            3.389905
 C            4.032906           -0.094049            4.693391
 C            2.905204           -0.642552            5.417482
 C            1.710214           -0.813764            4.803178
 C            1.524712           -0.456404            3.402813
 C            0.316083           -0.635278            2.769569
 C            0.137989           -0.281125            1.393530
 C           -1.095348           -0.469910            0.749232
 C           -1.280416           -0.122586           -0.598089
 C           -4.616452           -0.096158            0.092230
 C           -4.532120            1.335338            0.083683
 C           -5.487097            2.095324            0.717476
 C           -5.459457            3.547724            0.746632
 H           -6.413975            5.336500            1.422093
 H           -8.258850            4.186645            2.566720
 H           -8.407782            1.680290            2.573176
 H           -6.728620           -2.520881            1.359037
 H           -5.881446           -4.796609            0.750574
 H           -4.958225           -7.062914            0.097574
 H           -3.180330           -8.375435           -1.065495
 H           -1.327850           -7.249967           -2.219830
 H           -1.165510           -4.742148           -2.256864
 H           -4.758764           -0.619286           -2.805951
 H           -4.979428            0.050808           -5.191586
 H           -3.091864            1.074719           -6.394714
 H           -0.908533            1.455236           -5.244987
 H            0.484165            1.264443           -3.222879
 H            1.884573            1.072832           -1.240666
 H            1.747335            4.946861            2.596596
 H            2.205795            7.417006            2.651962
 H            4.108777            8.373162            1.428640
 H            5.646204            6.919367            0.102086
 H            6.253622            4.595221           -0.698297
 H            6.784587            2.271458           -1.455674
 H            7.859759           -2.029229           -2.975514
 H            7.401313           -4.495633           -3.079885
 H            5.500347           -5.476448           -1.872008
 H            3.968240           -4.047468           -0.510399
 H            3.352444           -1.754014            0.327496
 H            4.755560            0.679175            2.840204
 H            4.970495            0.029569            5.233039
 H            3.054812           -0.905154            6.463458
 H            0.850797           -1.221476            5.333998
 H           -0.536200           -1.050747            3.307531
 H           -1.924376           -0.904325            1.310834
 H           -3.692581            1.806121           -0.436733
 H           -4.636233            4.045248            0.233026

