100

 C          -14.476834           -2.713895            0.784528
 C          -13.252456           -2.542919            1.338100
 C          -12.220500           -1.788494            0.646686
 C          -10.962735           -1.581582            1.160715
 C           -9.993600           -0.827326            0.419416
 C           -8.700193           -0.585596            0.896459
 C           -7.789035            0.159243            0.125640
 N           -6.511237            0.374219            0.640168
 C           -5.634815            1.072811           -0.078448
 C           -4.297712            1.287180            0.464712
 C           -3.371708            1.984536           -0.240718
 C           -2.002165            2.197851            0.286998
 C           -1.672880            3.371700            0.941775
 C           -2.628278            4.454835            1.133197
 C           -2.280733            5.593024            1.780742
 C           -0.943579            5.765380            2.310012
 C           -0.014784            4.790614            2.162713
 C           -0.329398            3.549886            1.467531
 C            0.611730            2.558853            1.305593
 C            0.297337            1.340540            0.622759
 C            1.259621            0.331590            0.457442
 C            0.958643           -0.866080           -0.209011
 C            1.924418           -1.922339           -0.376715
 C            3.281704           -1.730921            0.189878
 C            3.509984           -2.181137            1.556822
 C            4.722942           -2.039425            2.139691
 C            5.832863           -1.434297            1.422510
 C            7.082950           -1.268572            1.968128
 C            8.132288           -0.661204            1.201394
 C            9.422405           -0.469430            1.708403
 C           10.413908            0.132121            0.911482
 N           11.685464            0.301476            1.457591
 C           12.635284            0.867663            0.716452
 C           13.966847            1.041115            1.295442
 C           14.957941            1.612352            0.573743
 C           14.730459            2.066320           -0.785640
 C           13.517092            1.931030           -1.372158
 C           12.406324            1.326026           -0.656497
 C           11.155209            1.162948           -1.201342
 C           10.105820            0.556111           -0.434483
 C            8.815377            0.364353           -0.941085
 C            7.824350           -0.238228           -0.144886
 N            6.553546           -0.410888           -0.691569
 C            5.603715           -0.979187            0.048272
 C            4.276785           -1.157285           -0.532178
 C            1.597122           -3.092204           -1.039279
 C            2.545237           -4.184976           -1.211781
 C            2.199790           -5.319174           -1.867112
 C            0.871929           -5.478100           -2.423285
 C           -0.050941           -4.495528           -2.292102
 C            0.261237           -3.259197           -1.587722
 C           -0.676861           -2.264358           -1.433396
 C           -0.364633           -1.050659           -0.740939
 C           -1.327522           -0.043161           -0.573385
 C           -1.029324            1.150968            0.101157
 C           -3.689233            2.541454           -1.549083
 C           -4.916145            2.373238           -2.094556
 C           -5.952466            1.631672           -1.395543
 C           -7.210749            1.426942           -1.907884
 C           -8.182279            0.678585           -1.163520
 C           -9.476071            0.439058           -1.639620
 C          -10.387822           -0.305214           -0.868341
 N          -11.666167           -0.517677           -1.382166
 C          -12.540441           -1.221055           -0.666002
 C          -13.879827           -1.438423           -1.210774
 C          -14.795209           -2.149712           -0.513981
 H          -15.258609           -3.277349            1.292714
 H          -13.001535           -2.962173            2.312159
 H          -10.676371           -1.983118            2.134083
 H           -8.381417           -0.970012            1.868194
 H           -4.086625            0.860704            1.448987
 H           -3.635269            4.315632            0.736454
 H           -2.991296            6.406040            1.924251
 H           -0.717939            6.697310            2.826251
 H            0.994617            4.900574            2.557997
 H            1.622303            2.684261            1.695949
 H            2.264003            0.488434            0.856331
 H            2.667215           -2.632086            2.082451
 H            4.907815           -2.372755            3.161299
 H            7.303417           -1.592229            2.986601
 H            9.676499           -0.783084            2.723490
 H           14.108046            0.689821            2.319583
 H           15.956334            1.748948            0.990272
 H           15.570804            2.517742           -1.311943
 H           13.334037            2.268148           -2.392153
 H           10.934878            1.488024           -2.219416
 H            8.560920            0.677493           -1.956397
 H            4.132261           -0.810409           -1.558754
 H            3.544992           -4.056207           -0.793534
 H            2.904736           -6.139418           -1.996432
 H            0.648075           -6.407098           -2.945444
 H           -1.053488           -4.595564           -2.706782
 H           -1.683318           -2.382897           -1.836206
 H           -2.330379           -0.198715           -0.976573
 H           -2.900727            3.092527           -2.063334
 H           -5.167188            2.784780           -3.072646
 H           -7.495986            1.823740           -2.883514
 H           -9.794403            0.824177           -2.611076
 H          -14.090009           -1.002456           -2.189551
 H          -15.798382           -2.320538           -0.905459

