100

 C          -13.604199           -3.545318            2.469445
 C          -14.284212           -2.395835            1.901837
 C          -13.615767           -1.482040            1.161438
 C          -12.182191           -1.633755            0.915131
 N          -11.556581           -0.714643            0.182478
 C          -10.190102           -0.856566           -0.056970
 C           -9.542973            0.122249           -0.833966
 C           -8.173241            0.017631           -1.102063
 C           -7.462104            0.984173           -1.888628
 C           -6.116985            0.832288           -2.125287
 C           -5.332945            1.770061           -2.911886
 C           -4.009806            1.574475           -3.118459
 C           -3.330749            0.413445           -2.558489
 C           -1.880100            0.260511           -2.830167
 C           -1.443024           -0.408254           -3.960292
 C           -2.362924           -0.969284           -4.940903
 C           -1.909945           -1.627664           -6.034759
 C           -0.489600           -1.798529           -6.260649
 C            0.411771           -1.294840           -5.383929
 C           -0.017617           -0.572474           -4.193896
 C            0.892274           -0.059537           -3.297552
 C            0.464740            0.640408           -2.124007
 C            1.393707            1.151232           -1.203254
 C            0.982103            1.835733           -0.049455
 C            1.916688            2.353323            0.917955
 C            3.366151            2.131931            0.691234
 C            4.010772            1.072036            1.241703
 C            5.440773            0.878424            1.023654
 N            6.038345           -0.169054            1.588124
 C            7.406567           -0.353682            1.393393
 C            8.021742           -1.463550            2.001066
 C            9.393858           -1.685450            1.838116
 C           10.071909           -2.798430            2.437297
 C           11.422022           -2.971090            2.248058
 C           12.173416           -4.073498            2.824453
 C           13.504153           -4.197262            2.605276
 C           14.218629           -3.233465            1.788719
 C           13.578984           -2.184257            1.223100
 C           12.142473           -1.996843            1.423733
 N           11.546063           -0.952848            0.851927
 C           10.176348           -0.770085            1.040419
 C            9.560438            0.338592            0.430858
 C            8.188280            0.561446            0.594771
 C            7.508225            1.675453           -0.000819
 C            6.159602            1.851516            0.196307
 C            5.406390            2.957078           -0.372136
 C            4.080224            3.092904           -0.138992
 C            1.478009            3.032399            2.041616
 C            2.395094            3.578335            3.033710
 C            1.939431            4.230260            4.130310
 C            0.518696            4.402574            4.352771
 C           -0.379924            3.920976            3.461219
 C            0.052804            3.216796            2.261592
 C           -0.854969            2.723487            1.352745
 C           -0.425503            2.021661            0.181130
 C           -1.354373            1.506568           -0.736553
 C           -0.943066            0.812547           -1.884687
 C           -4.006669           -0.497172           -1.813258
 C           -5.434304           -0.333931           -1.557660
 N           -6.061438           -1.249037           -0.821555
 C           -7.426233           -1.101580           -0.576888
 C           -8.072340           -2.079072            0.201617
 C           -9.441974           -1.974233            0.469819
 C          -10.150359           -2.942388            1.255912
 C          -11.497006           -2.795770            1.487637
 C          -12.277945           -3.736784            2.272815
 H          -14.200456           -4.243882            3.055686
 H          -15.352990           -2.298644            2.094914
 H          -14.101305           -0.608454            0.721764
 H          -10.125984            0.960333           -1.222739
 H           -8.014949            1.834849           -2.290166
 H           -5.853047            2.633812           -3.327142
 H           -3.410042            2.271199           -3.705361
 H           -3.431679           -0.841878           -4.760547
 H           -2.594074           -2.046971           -6.771423
 H           -0.179671           -2.343504           -7.151130
 H            1.483796           -1.415954           -5.536079
 H            1.963316           -0.180570           -3.463099
 H            2.459550            1.004410           -1.389429
 H            3.497419            0.333165            1.862971
 H            7.412624           -2.144926            2.599890
 H            9.490717           -3.496869            3.041465
 H           11.623848           -4.789484            3.435046
 H           14.078275           -5.019289            3.031783
 H           15.288929           -3.388499            1.649589
 H           14.090441           -1.444118            0.604318
 H           10.169141            1.019174           -0.168970
 H            8.087231            2.373122           -0.607944
 H            5.952189            3.670181           -0.990763
 H            3.503776            3.918040           -0.559089
 H            3.464051            3.440879            2.862211
 H            2.621836            4.640949            4.873578
 H            0.206157            4.926415            5.254967
 H           -1.452468            4.039467            3.612105
 H           -1.926106            2.854576            1.510461
 H           -2.420577            1.645295           -0.545488
 H           -3.520900           -1.376187           -1.380857
 H           -7.489402           -2.917599            0.590258
 H           -9.595097           -3.790216            1.660349
 H          -11.754261           -4.595510            2.692245

