102

 C          -14.953429           -0.247418           -1.888315
 C          -14.623512           -1.603544           -1.491523
 C          -13.396366           -1.913972           -1.014540
 C          -12.368209           -0.881728           -0.888373
 N          -11.172265           -1.225322           -0.414477
 C          -10.186572           -0.246196           -0.294726
 C           -8.927059           -0.619684            0.204372
 C           -7.904858            0.331189            0.336346
 C           -6.611842           -0.029322            0.837076
 C           -5.608202            0.904750            0.958001
 C           -4.289618            0.546994            1.453838
 C           -3.305307            1.477617            1.558410
 C           -1.952851            1.111595            2.043256
 C           -1.614923            1.262355            3.376472
 C           -2.546640            1.794566            4.361925
 C           -2.194936            1.925914            5.663485
 C           -0.875512            1.536366            6.116454
 C            0.031827            1.036480            5.243871
 C           -0.289846            0.875556            3.832117
 C            0.624878            0.366374            2.938833
 C            0.301246            0.207384            1.553082
 C            1.234942           -0.311226            0.642011
 C            0.920455           -0.476809           -0.715739
 C            1.861415           -1.010911           -1.667024
 C            3.216164           -1.381399           -1.191908
 C            4.237547           -0.485851           -1.211309
 C            5.569252           -0.859807           -0.764531
 C            6.615955            0.033654           -0.787326
 C            7.927680           -0.348402           -0.355763
 C            8.996959            0.558497           -0.380724
 C           10.276357            0.162668            0.045420
 N           11.310776            1.096959            0.003822
 C           12.526284            0.731591            0.406258
 C           13.606557            1.716192            0.360318
 C           14.854585            1.382817            0.761883
 C           15.155824            0.048468            1.245727
 C           14.194067           -0.903310            1.308964
 C           12.831644           -0.615315            0.894251
 C           11.816631           -1.541820            0.937124
 C           10.494915           -1.186212            0.512427
 C            9.421785           -2.086735            0.533703
 C            8.141970           -1.694836            0.109271
 C            7.036613           -2.606967            0.126588
 C            5.784481           -2.218722           -0.292666
 C            4.649860           -3.132167           -0.283575
 C            3.427216           -2.737526           -0.709795
 C            1.519221           -1.169057           -2.998773
 C            2.444769           -1.714526           -3.982878
 C            2.088465           -1.855201           -5.282160
 C            0.769533           -1.463448           -5.734286
 C           -0.132854           -0.952372           -4.863032
 C            0.194409           -0.781370           -3.453735
 C           -0.716171           -0.263525           -2.561222
 C           -0.388359           -0.099579           -1.177160
 C           -1.320781            0.422203           -0.266796
 C           -1.007840            0.583698            1.091632
 C           -3.550268            2.861803            1.184360
 C           -4.763226            3.243303            0.720106
 C           -5.853173            2.287349            0.578753
 C           -7.089321            2.656267            0.098930
 C           -8.147985            1.700226           -0.039912
 C           -9.408780            2.070144           -0.535150
 C          -10.434465            1.125544           -0.671735
 C          -11.734633            1.457086           -1.175157
 C          -12.701676            0.486570           -1.290904
 C          -14.039720            0.748140           -1.793204
 H          -15.959548           -0.063932           -2.263189
 H          -15.401515           -2.360511           -1.592365
 H          -13.119210           -2.924659           -0.708238
 H           -8.756884           -1.661301            0.486144
 H           -6.441123           -1.068758            1.119584
 H           -4.117722           -0.492966            1.733793
 H           -3.539737            2.081919            4.011990
 H           -2.887652            2.324230            6.403496
 H           -0.645629            1.659460            7.173779
 H            1.028714            0.738428            5.566777
 H            1.620038            0.069781            3.271084
 H            2.227768           -0.590069            1.001601
 H            4.089113            0.534730           -1.565849
 H            6.467212            1.055444           -1.138255
 H            8.849044            1.582302           -0.731715
 H           13.350099            2.711178           -0.008776
 H           15.671482            2.104251            0.734262
 H           16.180600           -0.155235            1.553759
 H           14.406528           -1.909233            1.669789
 H           11.994442           -2.557513            1.292221
 H            9.582549           -3.106244            0.884670
 H            7.213030           -3.622662            0.480753
 H            4.824871           -4.145337            0.078412
 H            2.570106           -3.411222           -0.707885
 H            3.437123           -2.005727           -3.633766
 H            2.776562           -2.264038           -6.020718
 H            0.535625           -1.594765           -6.789707
 H           -1.129714           -0.653250           -5.184911
 H           -1.711248            0.034558           -2.892422
 H           -2.311686            0.705547           -0.628431
 H           -2.725532            3.566759            1.291631
 H           -4.962740            4.276546            0.435939
 H           -7.287686            3.688973           -0.187960
 H           -9.591561            3.106758           -0.818659
 H          -11.934797            2.490055           -1.461866
 H          -14.274106            1.770669           -2.087542

