102

 C           -5.030752            3.546584           -5.311957
 C           -3.800193            4.038742           -4.719828
 C           -3.345240            3.547951           -3.544588
 C           -4.089156            2.502995           -2.840797
 N           -3.607842            2.044006           -1.689308
 C           -4.303633            1.046481           -1.007682
 C           -5.538477            0.509405           -1.527700
 C           -6.028619            1.030202           -2.772034
 C           -5.332950            2.009521           -3.438238
 C           -5.761935            2.582486           -4.703247
 C           -6.213321           -0.486882           -0.814867
 C           -5.703930           -0.976692            0.399454
 C           -6.394681           -1.996294            1.130745
 C           -5.902194           -2.481562            2.321963
 C           -6.589105           -3.519416            3.078091
 C           -6.081731           -3.982514            4.246216
 C           -4.841318           -3.453527            4.776609
 C           -4.162762           -2.485890            4.113964
 C           -4.657448           -1.952048            2.852750
 C           -3.979290           -0.971084            2.163824
 C           -4.471652           -0.449335            0.923626
 C           -3.784269            0.562019            0.215276
 C           -2.525305            1.133327            0.757816
 C           -2.568096            2.206255            1.632808
 C           -3.819414            2.824466            2.050559
 C           -3.835249            3.878619            2.901498
 C           -2.600617            4.424581            3.425163
 C           -1.407601            3.887062            3.074809
 C           -1.330758            2.753582            2.162832
 C           -0.121792            2.205770            1.799064
 C           -0.050242            1.106238            0.885312
 C            1.186814            0.565759            0.497551
 C            1.269767           -0.493502           -0.418733
 C            2.528818           -1.051087           -0.847923
 C            3.786206           -0.504206           -0.277291
 C            4.371749           -1.105885            0.859712
 C            3.776205           -2.236923            1.506725
 C            4.356513           -2.824721            2.608812
 C            3.757730           -3.976330            3.268752
 C            4.341392           -4.540858            4.353427
 C            5.580862           -4.011639            4.885735
 C            6.182260           -2.942925            4.308992
 C            5.600290           -2.295265            3.141731
 C            6.190066           -1.206684            2.538103
 C            5.602700           -0.582465            1.390631
 C            6.211929            0.526157            0.779043
 C            5.639270            1.132515           -0.343562
 C            6.234420            2.266221           -0.992136
 C            5.638331            2.828922           -2.094216
 C            6.177897            3.978022           -2.802138
 C            5.542109            4.488100           -3.883878
 C            4.305885            3.903109           -4.370109
 C            3.750912            2.832752           -3.757488
 C            4.389312            2.238230           -2.582784
 N            3.811980            1.187877           -2.007034
 C            4.406713            0.611535           -0.885284
 C            2.574778           -2.074959           -1.779566
 C            3.829059           -2.646503           -2.251384
 C            3.848618           -3.644415           -3.167429
 C            2.614969           -4.176222           -3.707456
 C            1.418836           -3.685611           -3.303035
 C            1.338119           -2.612156           -2.321257
 C            0.126341           -2.106664           -1.908880
 C            0.052747           -1.037645           -0.959578
 C           -1.185008           -0.507745           -0.559808
 C           -1.267482            0.558084            0.349098
 H           -5.339237            3.982506           -6.261468
 H           -3.259066            4.816764           -5.258520
 H           -2.422872            3.895712           -3.073261
 H           -6.961005            0.629443           -3.170444
 H           -6.687767            2.206037           -5.136532
 H           -7.148020           -0.889198           -1.205156
 H           -7.326477           -2.382249            0.718632
 H           -7.521045           -3.906254            2.668215
 H           -6.585242           -4.759933            4.819474
 H           -4.480361           -3.860632            5.719762
 H           -3.229288           -2.075909            4.499786
 H           -3.041517           -0.568050            2.555916
 H           -4.744402            2.411409            1.645497
 H           -4.767824            4.345309            3.212877
 H           -2.669113            5.275196            4.100874
 H           -0.468638            4.285312            3.456652
 H            0.811569            2.607112            2.193312
 H            2.103266            0.993021            0.908700
 H            2.839442           -2.628324            1.100833
 H            2.826246           -4.362630            2.854899
 H            3.902610           -5.402055            4.854751
 H            6.005807           -4.503635            5.759766
 H            7.114582           -2.535143            4.697314
 H            7.122305           -0.796557            2.925302
 H            7.144615            0.917102            1.185588
 H            7.165499            2.664791           -0.588295
 H            7.106634            4.407323           -2.428050
 H            5.934433            5.349955           -4.422488
 H            3.844232            4.359144           -5.246027
 H            2.821474            2.369990           -4.097607
 H            4.753942           -2.234429           -1.844800
 H            4.783611           -4.071545           -3.524843
 H            2.686853           -4.974104           -4.444319
 H            0.480755           -4.071073           -3.699616
 H           -0.806761           -2.505101           -2.306398
 H           -2.100970           -0.926926           -0.979996

