102

 C           14.724391           -1.258403           -2.555476
 C           13.851936           -0.223849           -2.495255
 C           12.528644           -0.390943           -1.910513
 C           11.628687            0.648568           -1.841197
 C           10.332311            0.472223           -1.257606
 C            9.412909            1.531442           -1.184032
 C            8.148770            1.349097           -0.608699
 C            7.177408            2.398897           -0.515073
 C            5.948826            2.158405            0.053119
 C            4.911173            3.168724            0.173247
 C            3.710231            2.875003            0.723647
 C            3.424559            1.534544            1.217477
 C            2.076585            1.281398            1.782236
 C            1.786681            1.608291            3.095218
 C            2.766770            2.216438            3.985717
 C            2.456324            2.525170            5.267840
 C            1.135357            2.254069            5.796454
 C            0.185147            1.687805            5.015224
 C            0.460203            1.341837            3.627166
 C           -0.503866            0.774076            2.826185
 C           -0.228965            0.431243            1.463635
 C           -1.213636           -0.149872            0.649425
 C           -0.951524           -0.493480           -0.685765
 C           -1.943423           -1.101787           -1.535355
 C           -3.288828           -1.367476           -0.970418
 C           -3.504636           -2.653115           -0.320151
 C           -4.709711           -2.966846            0.209598
 C           -5.822297           -2.034106            0.147117
 C           -7.067510           -2.306711            0.661796
 C           -8.118335           -1.337036            0.563711
 C           -9.406663           -1.559300            1.066433
 C          -10.406256           -0.579823            0.948755
 C          -11.727137           -0.797764            1.458442
 C          -12.705578            0.163580            1.341780
 C          -14.052378           -0.045157            1.854998
 C          -15.002725            0.912212            1.731260
 C          -14.702490            2.173213            1.082831
 C          -13.466165            2.420310            0.587057
 C          -12.403704            1.428712            0.690354
 C          -11.140708            1.658731            0.193047
 C          -10.106276            0.672335            0.302998
 C           -8.818405            0.901377           -0.203117
 C           -7.820988           -0.081683           -0.084887
 N           -6.555953            0.187136           -0.606312
 C           -5.603911           -0.737802           -0.499734
 C           -4.285258           -0.450588           -1.054679
 C           -1.653061           -1.437208           -2.846175
 C           -2.627617           -2.069361           -3.725600
 C           -2.318232           -2.386393           -5.005825
 C           -1.003937           -2.099995           -5.542620
 C           -0.058231           -1.513309           -4.770490
 C           -0.331371           -1.160074           -3.383900
 C            0.629412           -0.578398           -2.588113
 C            0.355779           -0.233546           -1.225759
 C            1.339736            0.349990           -0.411469
 C            1.080475            0.686641            0.926069
 C            4.357399            0.551490            1.148668
 C            5.666003            0.812644            0.558354
 N            6.546112           -0.184520            0.492722
 C            7.792791            0.051112           -0.085712
 C            8.710039           -1.011240           -0.157929
 C            9.973505           -0.821883           -0.736552
 C           10.924728           -1.890821           -0.823829
 C           12.165363           -1.699441           -1.389033
 C           13.143527           -2.774912           -1.485468
 C           14.361181           -2.563583           -2.040451
 H           15.717037           -1.144176           -2.988764
 H           14.109240            0.762709           -2.879127
 H           11.887390            1.632891           -2.231043
 H            9.686950            2.508933           -1.581173
 H            7.435928            3.383806           -0.905511
 H            5.137795            4.167854           -0.199379
 H            2.919837            3.620896            0.816374
 H            3.761415            2.412683            3.581742
 H            3.184917            2.980514            5.937342
 H            0.940281            2.519201            6.834444
 H           -0.812691            1.471710            5.395751
 H           -1.502332            0.573163            3.216180
 H           -2.205135           -0.335939            1.067827
 H           -2.659995           -3.342148           -0.281485
 H           -4.884985           -3.925593            0.697963
 H           -7.280721           -3.258056            1.150443
 H           -9.637025           -2.505978            1.555312
 H          -11.940127           -1.750091            1.943714
 H          -14.261814           -0.998277            2.339317
 H          -16.013147            0.766727            2.110706
 H          -15.504743            2.906618            1.011161
 H          -13.226648            3.363701            0.096991
 H          -10.899657            2.601792           -0.298144
 H           -8.573545            1.845006           -0.695929
 H           -4.148549            0.522583           -1.533516
 H           -3.617027           -2.277839           -3.314727
 H           -3.042734           -2.860158           -5.666805
 H           -0.810001           -2.371174           -6.579204
 H            0.934302           -1.286201           -5.158205
 H            1.624601           -0.369626           -2.982374
 H            2.329031            0.541089           -0.833075
 H            4.171815           -0.460635            1.517816
 H            8.421756           -1.985542            0.243157
 H           10.638166           -2.865618           -0.428361
 H           12.856868           -3.751053           -1.094942
 H           15.100656           -3.359761           -2.117359

