92

 C            8.592096            0.161793           -5.177512
 C            8.936632            0.046285           -3.883250
 C            7.850400            0.350236           -2.945699
 C            7.875695            0.325301           -1.581672
 C            6.683854            0.659680           -0.838527
 C            6.678586            0.638445            0.563261
 C            5.523504            0.957238            1.293073
 C            4.320043            1.317140            0.592790
 C            4.327459            1.340287           -0.809651
 C            5.481280            1.018010           -1.539405
 C            5.483113            1.037421           -2.985311
 C            6.626307            0.714040           -3.637456
 S            6.904345            0.654308           -5.373474
 C            3.128932            1.645714            1.358575
 C            1.873145            2.032008            0.673033
 C            1.591221            3.364165            0.421911
 C            2.503106            4.439895            0.787929
 C            2.197217            5.736434            0.542008
 C            0.949337            6.094150           -0.099986
 C            0.065576            5.135746           -0.466877
 C            0.340699            3.726010           -0.224810
 C           -0.556421            2.748289           -0.589015
 C           -0.286071            1.363869           -0.344673
 C           -1.204502            0.369274           -0.716509
 C           -0.946398           -0.990135           -0.483155
 C           -1.870781           -2.029087           -0.863653
 C           -3.124926           -1.641756           -1.551685
 C           -3.188385           -1.581802           -2.910562
 S           -1.905334           -1.917560           -4.062488
 C           -2.945430           -1.577563           -5.451964
 C           -4.189802           -1.230395           -5.079376
 C           -4.393620           -1.213271           -3.627410
 C           -5.527938           -0.905644           -2.935269
 C           -5.518092           -0.947816           -1.493161
 C           -4.319238           -1.316699           -0.789453
 C           -4.334318           -1.351852            0.612681
 C           -5.490931           -1.031263            1.338860
 C           -5.501370           -1.065507            2.784485
 C           -6.646457           -0.741711            3.433170
 S           -6.934479           -0.698817            5.168104
 C           -8.617489           -0.192203            4.967563
 C           -8.953318           -0.060290            3.672602
 C           -7.863938           -0.362333            2.738167
 C           -7.881170           -0.323944            1.374343
 C           -6.687625           -0.659864            0.634699
 C           -6.675117           -0.628175           -0.766833
 C           -1.588590           -3.361467           -0.613446
 C           -2.500270           -4.437023           -0.979683
 C           -2.193233           -5.733867           -0.736384
 C           -0.944174           -6.091874           -0.096872
 C           -0.060970           -5.133289            0.271377
 C           -0.337695           -3.723435            0.032386
 C            0.558923           -2.745481            0.398080
 C            0.287863           -1.361132            0.155226
 C            1.206136           -0.366210            0.527856
 C            0.948270            0.992868            0.293777
 C            3.198258            1.592552            2.717414
 S            1.919591            1.932055            3.873106
 C            2.966116            1.599944            5.259845
 C            4.209369            1.252863            4.883595
 C            4.407287            1.229746            3.430905
 C            5.539585            0.922520            2.735318
 H            9.195901           -0.003676           -6.055286
 H            9.912878           -0.242082           -3.513435
 H            8.775329            0.057395           -1.031192
 H            7.589783            0.367248            1.097067
 H            3.413639            1.613252           -1.344823
 H            4.566514            1.309213           -3.507722
 H            3.441577            4.162492            1.271059
 H            2.874431            6.543229            0.818741
 H            0.751904            7.150679           -0.273270
 H           -0.878357            5.384520           -0.950484
 H           -1.498414            3.010403           -1.071789
 H           -2.139275            0.664219           -1.198737
 H           -2.537358           -1.665607           -6.446212
 H           -5.002905           -0.977221           -5.747933
 H           -6.448792           -0.626267           -3.443320
 H           -3.424658           -1.633594            1.150394
 H           -4.589795           -1.349026            3.309466
 H           -9.225693           -0.032003            5.843279
 H           -9.925309            0.239021            3.300271
 H           -8.775745           -0.044325            0.821482
 H           -7.582247           -0.348482           -1.303126
 H           -3.439781           -4.159483           -1.460649
 H           -2.870389           -6.540601           -1.013073
 H           -0.745272           -7.148612            0.073488
 H            0.883724           -5.382266            0.753465
 H            1.501078           -3.007863            0.880445
 H            2.140444           -0.661230            1.010961
 H            2.561738            1.691778            6.255238
 H            5.025569            1.003649            5.549933
 H            6.463517            0.648625            3.240847

