92

 C            5.224051           -6.930590            1.387306
 C            6.095108           -6.071739            0.829684
 C            5.635788           -4.678899            0.815695
 C            6.278032           -3.579170            0.326032
 C            5.644525           -2.284636            0.411671
 C            4.344197           -2.163144            1.011555
 C            3.685922           -3.345430            1.521320
 C            4.321405           -4.537990            1.417421
 S            3.756857           -6.117149            1.948518
 C            3.737037           -0.901130            1.091678
 C            4.372127            0.247683            0.597066
 C            5.672306            0.124829           -0.004878
 C            6.279859           -1.137330           -0.083980
 C            6.344160            1.292026           -0.522718
 C            5.739954            2.511957           -0.437792
 C            6.242555            3.810608           -0.897195
 C            5.402612            4.834507           -0.664544
 S            3.917269            4.307720            0.138006
 C            4.429565            2.627844            0.172122
 C            3.752007            1.560035            0.676715
 C            2.415411            1.725090            1.295146
 C            2.294575            1.979191            2.650790
 C            3.448598            2.076615            3.534842
 C            3.303088            2.333605            4.856906
 C            1.987980            2.517908            5.434778
 C            0.879226            2.436524            4.661300
 C            0.975784            2.162941            3.233819
 C           -0.146881            2.079377            2.442469
 C           -0.049016            1.807852            1.040290
 C           -1.196743            1.715240            0.236927
 C           -1.109359            1.449910           -1.138219
 C           -2.273807            1.347622           -1.982134
 C           -3.609327            1.554028           -1.373873
 C           -4.181619            2.788990           -1.337422
 S           -3.519986            4.298875           -1.944261
 C           -4.943268            5.223105           -1.446054
 C           -5.869058            4.447181           -0.855506
 C           -5.489881            3.033820           -0.762025
 C           -6.199940            2.000283           -0.225354
 C           -5.640808            0.670176           -0.231938
 C           -6.356518           -0.403267            0.319206
 C           -5.830585           -1.702885            0.326833
 C           -4.532610           -1.938051           -0.243598
 C           -3.986638           -3.277022           -0.234321
 C           -4.721528           -4.273784            0.316254
 S           -4.302377           -5.975995            0.462209
 C           -5.826704           -6.375241            1.266056
 C           -6.613316           -5.296083            1.420729
 C           -6.035185           -4.054558            0.895671
 C           -6.573414           -2.800808            0.898873
 C           -3.818266           -0.865436           -0.797740
 C           -4.342643            0.435533           -0.804333
 C           -2.153208            1.075276           -3.334462
 C           -3.307821            0.951733           -4.214299
 C           -3.161656            0.693327           -5.536055
 C           -1.845458            0.529513           -6.117372
 C           -0.736140            0.630831           -5.346899
 C           -0.833672            0.905796           -3.919814
 C            0.289558            1.007503           -3.131202
 C            0.190507            1.274142           -1.728337
 C            1.338267            1.365773           -0.924699
 C            1.250650            1.627839            0.450837
 H            5.317235           -7.996443            1.520683
 H            7.060479           -6.333008            0.414028
 H            7.262804           -3.648641           -0.131778
 H            2.699721           -3.243514            1.972972
 H            2.747917           -0.810323            1.548947
 H            7.265772           -1.227837           -0.540311
 H            7.327183            1.172041           -0.973823
 H            7.210937            3.882731           -1.375992
 H            5.528666            5.879088           -0.901048
 H            4.436036            1.936741            3.091564
 H            4.163852            2.409837            5.519924
 H            1.926650            2.722445            6.502383
 H           -0.118249            2.572992            5.077565
 H           -1.139638            2.222381            2.870402
 H           -2.178091            1.855722            0.695666
 H           -4.972549            6.284100           -1.636760
 H           -6.822189            4.783340           -0.467135
 H           -7.185085            2.150830            0.211844
 H           -7.341236           -0.223116            0.750949
 H           -3.001941           -3.445314           -0.669016
 H           -6.013181           -7.395380            1.561112
 H           -7.592443           -5.289922            1.883630
 H           -7.555017           -2.600967            1.324046
 H           -2.831701           -1.046491           -1.233123
 H           -4.296496            1.076527           -3.769222
 H           -4.022823            0.602557           -6.196612
 H           -1.783515            0.324655           -7.184835
 H            0.262378            0.511498           -5.765838
 H            1.283684            0.888990           -3.563327
 H            2.319692            1.231909           -1.385197

