92

 C            4.159170           -6.602792            1.382607
 C            5.169891           -5.746567            1.613691
 C            4.942174           -4.397946            1.084885
 C            5.761920           -3.309318            1.150436
 C            5.343413           -2.060343            0.558943
 C            6.175096           -0.933070            0.614630
 C            5.785368            0.287237            0.045425
 C            4.510230            0.389683           -0.609424
 C            4.119499            1.654242           -1.191872
 C            4.970555            2.705085           -1.105643
 S            4.744021            4.335718           -1.724219
 C            6.318702            4.875956           -1.127481
 C            6.984631            3.892791           -0.496823
 C            6.262612            2.617348           -0.449905
 C            6.656181            1.437351            0.110408
 C            3.672422           -0.743738           -0.673374
 C            2.365894           -0.650959           -1.374851
 C            2.285008           -0.905095           -2.733881
 C            3.448763           -1.269470           -3.531336
 C            3.344767           -1.508943           -4.860531
 C            2.065616           -1.409971           -5.532353
 C            0.949316           -1.077879           -4.840779
 C            1.001763           -0.810672           -3.409621
 C           -0.128443           -0.475727           -2.699223
 C           -0.071777           -0.212122           -1.293130
 C           -1.228441            0.122498           -0.570576
 C           -1.182438            0.383110            0.807433
 C           -2.358487            0.716740            1.572088
 C           -3.671938            0.760984            0.878854
 C           -4.133145            1.974421            0.326868
 C           -3.347597            3.186493            0.398151
 C           -3.846921            4.322499           -0.145922
 S           -3.105334            5.916517           -0.195943
 C           -4.476483            6.624896           -1.059384
 C           -5.442662            5.721678           -1.301391
 C           -5.141353            4.376695           -0.800675
 C           -5.903331            3.248272           -0.883665
 C           -5.416233            2.011256           -0.319788
 C           -6.187155            0.843071           -0.395917
 C           -5.730485           -0.366718            0.145879
 C           -4.449337           -0.413948            0.795016
 C           -3.989403           -1.667311            1.350376
 C           -4.782440           -2.760696            1.243326
 S           -4.465341           -4.389350            1.826134
 C           -6.009959           -5.001388            1.220919
 C           -6.730433           -4.042990            0.612665
 C           -6.079129           -2.729245            0.592053
 C           -6.537896           -1.560567            0.057977
 C           -2.276785            0.977746            2.929713
 C           -3.444530            1.319888            3.731187
 C           -3.339655            1.565669            5.059208
 C           -2.055646            1.496093            5.725628
 C           -0.935997            1.183862            5.030261
 C           -0.989371            0.908525            3.600736
 C            0.142526            0.583456            2.888461
 C            0.084878            0.311376            1.484038
 C            1.241013           -0.026000            0.761943
 C            1.193803           -0.294527           -0.614513
 C            4.067006           -1.968899           -0.095054
 C            3.219511           -3.139261           -0.147409
 C            3.655893           -4.289225            0.421163
 S            2.831647           -5.840901            0.497010
 H            4.075596           -7.640746            1.662058
 H            6.088441           -5.980984            2.136773
 H            6.732664           -3.354191            1.640316
 H            7.143777           -1.007298            1.109295
 H            3.148535            1.728502           -1.685850
 H            6.622425            5.896222           -1.298545
 H            7.965731            3.982460           -0.047587
 H            7.617378            1.335064            0.610403
 H            4.409185           -1.342557           -3.017363
 H            4.212442           -1.781344           -5.460177
 H            2.038328           -1.611055           -6.602304
 H           -0.021392           -0.999273           -5.328969
 H           -1.096037           -0.404144           -3.197064
 H           -2.184252            0.179631           -1.096451
 H           -2.372618            3.153194            0.888697
 H           -4.448886            7.670884           -1.319275
 H           -6.375665            5.917642           -1.814574
 H           -6.878215            3.251687           -1.367301
 H           -7.160736            0.875742           -0.885361
 H           -3.014561           -1.699699            1.841446
 H           -6.256967           -6.040256            1.370286
 H           -7.706421           -4.176391            0.163316
 H           -7.504777           -1.500036           -0.437680
 H           -4.408485            1.371038            3.221317
 H           -4.210470            1.821026            5.661849
 H           -2.027708            1.702370            6.794578
 H            0.038337            1.127425            5.514412
 H            1.112285            0.525228            3.383956
 H            2.197317           -0.080542            1.287306
 H            2.249802           -3.065122           -0.643935

