92

 C          -12.165847            2.962108            0.951133
 C          -11.494971            3.978533            0.172992
 C          -10.229655            3.781524           -0.276747
 C           -9.519086            2.548350            0.012487
 C           -8.226390            2.329579           -0.437333
 C           -7.543610            1.119053           -0.143719
 C           -6.217733            0.887527           -0.598162
 C           -5.556867           -0.294458           -0.302007
 C           -4.201589           -0.541748           -0.754587
 C           -3.565137           -1.706139           -0.450536
 C           -2.178029           -1.967386           -0.905991
 C           -1.941768           -2.633931           -2.095599
 C           -3.020087           -3.122842           -2.944616
 C           -2.763088           -3.761921           -4.111053
 C           -1.400440           -3.981406           -4.549799
 C           -0.358067           -3.553620           -3.797906
 C           -0.575133           -2.860055           -2.535523
 C            0.479101           -2.416877           -1.769647
 C            0.260947           -1.729191           -0.533236
 C            1.336871           -1.270565            0.243793
 C            1.130158           -0.587357            1.451914
 C            2.220221           -0.092368            2.255168
 C            3.605679           -0.297608            1.767310
 C            4.203722            0.602317            0.939209
 C            5.556539            0.389975            0.462361
 C            6.178862            1.293884           -0.384519
 C            7.502312            1.070108           -0.849622
 C            8.146622            1.988929           -1.720508
 C            9.437088            1.761030           -2.172098
 C           10.109280            2.689692           -3.063734
 C           11.373071            2.449367           -3.496390
 C           12.080233            1.260353           -3.078136
 C           11.494198            0.362327           -2.245569
 C           10.143708            0.571644           -1.753406
 C            9.524801           -0.331711           -0.902610
 C            8.202121           -0.109391           -0.433139
 C            7.554135           -1.027016            0.437806
 C            6.261813           -0.798899            0.884580
 C            5.580521           -1.725578            1.772050
 C            4.313159           -1.489858            2.193950
 C            1.983997            0.568549            3.447789
 C            3.061896            1.074400            4.287613
 C            2.804166            1.729642            5.444908
 C            1.441334            1.945872            5.884969
 C            0.399783            1.491864            5.147739
 C            0.617432            0.780980            3.895110
 C           -0.436208            0.321713            3.138345
 C           -0.217894           -0.369973            1.904098
 C           -1.293545           -0.831978            1.129224
 C           -1.087250           -1.501668           -0.086655
 C           -4.233123           -2.728092            0.332667
 C           -5.501842           -2.537746            0.772942
 C           -6.223838           -1.312052            0.478185
 C           -7.518978           -1.098380            0.923913
 C           -8.206474            0.110354            0.629235
 C           -9.532625            0.345324            1.082456
 C          -10.189251            1.531445            0.790920
 C          -11.543621            1.792161            1.246519
 H          -13.180426            3.167964            1.288344
 H          -12.036775            4.899282           -0.037378
 H           -9.710165            4.536985           -0.864804
 H           -7.713824            3.089928           -1.026065
 H           -5.723423            1.659870           -1.187238
 H           -3.711301            0.233357           -1.344050
 H           -4.043746           -2.954496           -2.604981
 H           -3.566331           -4.127190           -4.749187
 H           -1.248956           -4.497363           -5.496436
 H            0.673464           -3.710849           -4.110784
 H            1.507207           -2.579012           -2.093912
 H            2.356706           -1.449973           -0.104086
 H            3.683117            1.502682            0.612270
 H            5.655111            2.193508           -0.707297
 H            7.605933            2.882598           -2.031025
 H            9.562241            3.580448           -3.369750
 H           11.886146            3.138412           -4.165420
 H           13.091697            1.112915           -3.453121
 H           12.015613           -0.537910           -1.922985
 H           10.050020           -1.230864           -0.581693
 H            8.092795           -1.921000            0.751057
 H            6.123900           -2.616623            2.085877
 H            3.790977           -2.177812            2.858643
 H            4.085511            0.904778            3.948659
 H            3.606859            2.110494            6.074689
 H            1.289214            2.481477            6.820595
 H           -0.631796            1.643616            5.463296
 H           -1.464386            0.479913            3.464458
 H           -2.313257           -0.663254            1.482866
 H           -3.680706           -3.642478            0.548480
 H           -6.015903           -3.298008            1.360653
 H           -8.029427           -1.860968            1.511571
 H          -10.030326           -0.427080            1.668090
 H          -12.037988            1.017559            1.831225

