104

 C            3.199480            5.226048            5.865429
 C            2.987606            5.977043            4.666698
 C            2.819428            5.337462            3.468387
 C            2.852225            3.903373            3.397424
 C            2.681326            3.215736            2.167385
 C            2.709742            1.831080            2.102364
 C            2.918021            1.081104            3.313169
 C            3.089473            1.739674            4.520475
 C            3.060603            3.156850            4.589633
 C            3.235197            3.858217            5.830764
 C            2.942038           -0.376147            3.248587
 C            2.768326           -1.034050            2.085913
 C            2.552930           -0.329023            0.825234
 C            2.372951           -1.023301           -0.369207
 C            2.367008           -2.509730           -0.388005
 C            3.546036           -3.218025           -0.548314
 C            4.837196           -2.559512           -0.693384
 C            5.978542           -3.272782           -0.847392
 C            5.946989           -4.720299           -0.871566
 C            4.774530           -5.386621           -0.743545
 C            3.516277           -4.670756           -0.579000
 C            2.319267           -5.339195           -0.459290
 C            1.085675           -4.630299           -0.300442
 C           -0.138205           -5.308932           -0.197116
 C           -1.348048           -4.613309           -0.047298
 C           -2.598878           -5.304781            0.030783
 C           -3.785607           -4.620438            0.164062
 C           -5.063209           -5.317726            0.226602
 C           -6.226737           -4.636122            0.356452
 C           -6.228359           -3.190589            0.441040
 C           -5.067192           -2.494500            0.390961
 C           -3.784584           -3.169648            0.247106
 C           -2.585813           -2.478260            0.187712
 C           -2.563237           -0.996247            0.302363
 C           -2.552901           -0.196925           -0.839005
 C           -2.588032           -0.785179           -2.175198
 C           -2.563495           -0.026152           -3.287914
 C           -2.498540            1.429662           -3.218560
 C           -2.459635            2.192919           -4.374589
 C           -2.396469            3.609348           -4.312326
 C           -2.354418            4.418225           -5.498256
 C           -2.295467            5.782583           -5.405437
 C           -2.274828            6.422920           -4.126632
 C           -2.313408            5.679073           -2.978305
 C           -2.375091            4.245644           -3.040804
 C           -2.415015            3.451235           -1.865040
 C           -2.474298            2.067580           -1.928346
 C           -2.506597            1.236295           -0.713466
 C           -2.486249            1.804445            0.549811
 C           -2.507371            1.005624            1.722077
 C           -2.485382            1.603959            3.028091
 C           -2.507593            0.821656            4.150601
 C           -2.554549           -0.602545            4.036306
 C           -2.571949           -1.200085            2.805129
 C           -2.547405           -0.410370            1.605281
 C           -1.334620           -3.176405            0.022453
 C           -0.106904           -2.501944           -0.080565
 C            1.103717           -3.192587           -0.252044
 C            2.180501           -0.324055           -1.599979
 C            2.013099           -1.005301           -2.853509
 C            1.820981           -0.301323           -4.011425
 C            1.780334            1.127567           -3.993063
 C            1.943174            1.808067           -2.816980
 C            2.153007            1.096860           -1.586539
 C            2.329292            1.788485           -0.360231
 C            2.528557            1.110381            0.831170
 H            3.331597            5.767719            6.800565
 H            2.964437            7.063612            4.731357
 H            2.658760            5.898498            2.549165
 H            2.524282            3.805194            1.261689
 H            3.247896            1.172967            5.437752
 H            3.396386            3.276228            6.736895
 H            3.104361           -0.912613            4.184019
 H            2.784528           -2.126286            2.048844
 H            4.849435           -1.467710           -0.673092
 H            6.945385           -2.784003           -0.956685
 H            6.892832           -5.245577           -0.996081
 H            4.733172           -6.474851           -0.759899
 H            2.287580           -6.427831           -0.484875
 H           -0.150065           -6.397550           -0.237719
 H           -2.589761           -6.392857           -0.022571
 H           -5.044114           -6.404831            0.162856
 H           -7.187347           -5.147202            0.401196
 H           -7.189207           -2.689105            0.545354
 H           -5.057121           -1.404335            0.454487
 H           -2.635778           -1.875329           -2.237939
 H           -2.589575           -0.475926           -4.280881
 H           -2.477060            1.711224           -5.351862
 H           -2.372337            3.920386           -6.466464
 H           -2.264567            6.405116           -6.298089
 H           -2.229127            7.510064           -4.090195
 H           -2.299743            6.155356           -1.999195
 H           -2.397393            3.956837           -0.897296
 H           -2.449782            2.889767            0.664824
 H           -2.445031            2.689879            3.100621
 H           -2.486883            1.264921            5.145076
 H           -2.573961           -1.197779            4.947970
 H           -2.605417           -2.287123            2.712726
 H           -0.093812           -1.407072           -0.030885
 H            2.042839           -2.096252           -2.861389
 H            1.694161           -0.813734           -4.963661
 H            1.614724            1.657238           -4.929964
 H            1.909936            2.896420           -2.788594
 H            2.302029            2.880084           -0.374445

