104

 C            1.157847            2.661767           -6.827385
 C            0.396028            3.751332           -6.299640
 C           -0.390472            3.576124           -5.193279
 C           -0.463332            2.296021           -4.545753
 C           -1.274898            2.085927           -3.400085
 C           -1.349444            0.846086           -2.783765
 C           -0.582391           -0.245472           -3.321665
 C            0.219579           -0.053095           -4.435780
 C            0.294415            1.213348           -5.071077
 C            1.110616            1.429934           -6.232861
 C           -0.663035           -1.553125           -2.686002
 C           -1.450758           -1.777845           -1.609461
 C           -1.488655           -3.133140           -1.000794
 C           -2.246186           -4.142583           -1.569313
 C           -3.092437           -3.923807           -2.734815
 C           -3.818151           -4.930743           -3.277580
 C           -3.771260           -6.263927           -2.713887
 C           -3.007050           -6.524801           -1.626301
 C           -2.212798           -5.478370           -0.995982
 C           -1.441094           -5.735451            0.114065
 C           -0.675218           -4.700743            0.740573
 C            0.090175           -4.951335            1.889571
 C            0.809035           -3.926091            2.524370
 C            1.575775           -4.175430            3.706649
 C            2.261396           -3.162561            4.338345
 C            3.041992           -3.411880            5.542895
 C            3.700711           -2.407733            6.169799
 C            3.646353           -1.056265            5.652620
 C            2.937894           -0.771594            4.533376
 C            2.209466           -1.807905            3.814150
 C            1.476292           -1.542084            2.669842
 C            1.366456           -0.157218            2.141495
 C            0.255441            0.570036            2.401180
 C            0.095146            1.932536            1.913127
 C           -1.060956            2.646436            2.187371
 C           -1.218049            3.981619            1.733741
 C           -2.400252            4.744137            2.023099
 C           -2.521068            6.032730            1.578184
 C           -1.473159            6.637174            0.814995
 C           -0.334870            5.935673            0.522403
 C           -0.174364            4.582905            0.977901
 C            0.998752            3.835422            0.694645
 C            1.152372            2.532632            1.143803
 C            2.360384            1.744414            0.852102
 C            3.402846            2.274269            0.106900
 C            4.566981            1.517620           -0.185341
 C            5.650630            2.067301           -0.951188
 C            6.762238            1.314679           -1.217731
 C            6.858571           -0.031107           -0.742609
 C            5.841223           -0.583018           -0.011975
 C            4.663901            0.181890            0.290768
 C            3.595695           -0.357090            1.054031
 C            2.467254            0.393989            1.342615
 C            0.769375           -2.594120            1.983135
 C            0.035376           -2.358346            0.809718
 C           -0.699012           -3.375844            0.181258
 C           -2.258911           -0.703807           -1.019555
 C           -3.067170           -0.931945            0.082877
 C           -3.831312            0.113272            0.664289
 C           -4.673503           -0.106840            1.806564
 C           -5.399735            0.922317            2.342473
 C           -5.328374            2.232791            1.773787
 C           -4.532308            2.475271            0.687186
 C           -3.760233            1.415923            0.100301
 C           -2.932420            1.637698           -1.030524
 C           -2.193223            0.612767           -1.601021
 H            1.771140            2.836035           -7.709916
 H            0.457018            4.717302           -6.798336
 H           -0.974939            4.398511           -4.784067
 H           -1.846817            2.929630           -3.007774
 H            0.806072           -0.878240           -4.839482
 H            1.686401            0.592978           -6.625182
 H           -0.056263           -2.353316           -3.115266
 H           -3.125398           -2.914841           -3.151352
 H           -4.454844           -4.769631           -4.146078
 H           -4.368208           -7.039074           -3.192381
 H           -2.960757           -7.520796           -1.187735
 H           -1.401212           -6.736193            0.543035
 H            0.122760           -5.959924            2.300430
 H            1.600562           -5.191515            4.099094
 H            3.072057           -4.434505            5.916818
 H            4.285175           -2.583394            7.071933
 H            4.192385           -0.284073            6.192408
 H            2.894348            0.244303            4.134520
 H           -0.564942            0.153535            2.990000
 H           -1.871701            2.185387            2.753354
 H           -3.190891            4.270355            2.604603
 H           -3.409698            6.621852            1.797558
 H           -1.602725            7.663782            0.476318
 H            0.469250            6.386984           -0.056479
 H            1.787462            4.310821            0.108123
 H            3.341342            3.295452           -0.274843
 H            5.564796            3.091208           -1.311294
 H            7.590785            1.722612           -1.794345
 H            7.756218           -0.601513           -0.976025
 H            5.902226           -1.607481            0.353022
 H            3.679665           -1.384748            1.415744
 H            0.030524           -1.351325            0.377619
 H           -3.125592           -1.929438            0.525056
 H           -4.720989           -1.109178            2.230396
 H           -6.044895            0.764814            3.205465
 H           -5.923625            3.026425            2.221888
 H           -4.466531            3.469579            0.246106
 H           -2.884680            2.646997           -1.445662

