104

 C            2.642895            7.783016            0.817272
 C            2.588500            7.568322           -0.595755
 C            2.577209            6.297542           -1.104026
 C            2.619269            5.161502           -0.226383
 C            2.603625            3.833704           -0.728069
 C            2.640300            2.739335            0.122091
 C            2.699839            2.960748            1.543395
 C            2.716224            4.252169            2.045984
 C            2.674721            5.374824            1.178390
 C            2.685242            6.720748            1.679523
 C            2.739058            1.811537            2.443244
 C            2.707654            0.547923            1.976518
 C            2.637621            0.263931            0.546273
 C            2.595169           -1.042854            0.087441
 C            2.536191           -1.332190           -1.300888
 C            2.489707           -2.680965           -1.810383
 C            2.516560           -3.832136           -0.873083
 C            3.719953           -4.428693           -0.536176
 C            4.999216           -3.941518           -1.034891
 C            6.163283           -4.548627           -0.700713
 C            6.169608           -5.708874            0.165730
 C            5.010840           -6.201709            0.664737
 C            3.730631           -5.585066            0.344036
 C            2.549769           -6.077696            0.850266
 C            1.294955           -5.468321            0.529483
 C            0.091353           -5.966484            1.050012
 C           -1.140359           -5.373626            0.733401
 C           -2.367144           -5.888038            1.260918
 C           -3.574969           -5.305373            0.951697
 C           -4.827643           -5.826296            1.481981
 C           -6.012580           -5.246172            1.175090
 C           -6.061861           -4.087109            0.308650
 C           -4.925985           -3.566406           -0.214892
 C           -3.621854           -4.147303            0.075372
 C           -2.447859           -3.636548           -0.453569
 C           -2.490878           -2.474293           -1.376566
 C           -2.519831           -1.132416           -0.846633
 C           -2.471203           -0.860278            0.545611
 C           -2.516513            0.439247            1.024659
 C           -2.475096            0.704594            2.459615
 C           -2.520944            1.960525            2.945866
 C           -2.612226            3.119700            2.062787
 C           -2.656525            4.402885            2.584534
 C           -2.746391            5.535408            1.733602
 C           -2.794947            6.873079            2.254385
 C           -2.881731            7.944947            1.407469
 C           -2.924945            7.748939           -0.008629
 C           -2.880696            6.486419           -0.535308
 C           -2.790137            5.340527            0.325754
 C           -2.742996            4.021027           -0.195621
 C           -2.655851            2.916906            0.638113
 C           -2.607349            1.545144            0.107762
 C           -2.646982            1.284803           -1.252767
 C           -2.605577           -0.042200           -1.756076
 C           -2.652758           -0.301212           -3.167585
 C           -2.609790           -1.585056           -3.638736
 C           -2.528474           -2.685908           -2.733854
 C           -1.172755           -4.229570           -0.138492
 C            0.035352           -3.731342           -0.653371
 C            1.269634           -4.325476           -0.344233
 C            2.434212           -2.910778           -3.164205
 C            2.429606           -1.821593           -4.086507
 C            2.476480           -0.530620           -3.635344
 C            2.525170           -0.253131           -2.227445
 C            2.561886            1.081404           -1.744134
 C            2.613762            1.359239           -0.387512
 H            2.648161            8.806919            1.187339
 H            2.555140            8.435705           -1.252661
 H            2.534951            6.122014           -2.177631
 H            2.557835            3.689186           -1.809133
 H            2.757659            4.421979            3.121421
 H            2.724998            6.872435            2.756884
 H            2.792637            2.020861            3.511854
 H            2.733907           -0.308810            2.651251
 H            2.604630           -1.874053            0.796267
 H            4.985272           -3.065169           -1.686218
 H            7.121224           -4.185043           -1.068982
 H            7.131337           -6.163608            0.398529
 H            4.996438           -7.072304            1.318848
 H            2.546645           -6.947403            1.506692
 H            0.113127           -6.831305            1.712158
 H           -2.321687           -6.758717            1.914477
 H           -4.771314           -6.698667            2.131412
 H           -6.954454           -5.628547            1.565635
 H           -7.037609           -3.653129            0.096400
 H           -4.954383           -2.692619           -0.869344
 H           -2.395550           -1.699093            1.241366
 H           -2.405884           -0.159652            3.121616
 H           -2.490813            2.155672            4.017984
 H           -2.620903            4.558518            3.662266
 H           -2.760480            7.010771            3.333746
 H           -2.918852            8.962778            1.792277
 H           -2.992634            8.623708           -0.652991
 H           -2.911698            6.325043           -1.611583
 H           -2.774682            3.891100           -1.279108
 H           -2.710090            2.107050           -1.967764
 H           -2.723031            0.545448           -3.848426
 H           -2.641101           -1.793583           -4.707300
 H           -2.502090           -3.697050           -3.139947
 H            0.014175           -2.855566           -1.311375
 H            2.395629           -3.927790           -3.554336
 H            2.390465           -2.044302           -5.151902
 H            2.477709            0.307877           -4.329801
 H            2.544473            1.895131           -2.471332

