80

 C           -0.212209           -1.614209            3.431863
 C           -0.432803           -0.226316            3.141926
 C           -1.281908            0.146097            2.140506
 C           -1.988582           -0.831745            1.348609
 C           -1.908910           -2.196064            1.779314
 C           -0.933937           -2.567379            2.777439
 C           -2.807092           -3.142550            1.263756
 C           -3.908614           -2.700050            0.521429
 C           -5.002187           -3.591709            0.209613
 C           -6.162487           -3.111010           -0.317778
 C           -6.315338           -1.700893           -0.542206
 C           -5.267207           -0.850975           -0.343432
 C           -3.979456           -1.330262            0.100290
 C           -2.830029           -0.495005            0.242229
 C           -2.544126            0.623105           -0.667609
 C           -3.354461            0.968705           -1.761290
 C           -4.098393            0.014748           -2.566164
 C           -4.968868            0.413144           -3.528196
 C           -5.198599            1.819312           -3.773490
 C           -4.447019            2.749937           -3.136936
 C           -3.414499            2.358889           -2.187229
 C           -2.522149            3.280274           -1.686427
 C           -1.393124            2.820840           -0.939390
 C           -0.309704            3.662225           -0.643452
 C            0.879018            3.142062           -0.112669
 C            1.901788            3.990863            0.416767
 C            2.906274            3.436473            1.176908
 C            3.833400            4.272938            1.926774
 C            4.705677            3.730222            2.810123
 C            4.717074            2.301503            3.032753
 C            3.948317            1.479815            2.274516
 C            3.075938            1.991878            1.230495
 C            2.358421            1.183319            0.334144
 C            2.858003           -0.110284           -0.152257
 C            2.104482           -0.988574           -0.991368
 C            1.206673           -0.535616           -2.025895
 C            0.447743           -1.412093           -2.745971
 C            0.521316           -2.821749           -2.488657
 C            1.436533           -3.301680           -1.599883
 C            2.319354           -2.402391           -0.895132
 C            3.410222           -2.893912           -0.162235
 C            4.395446           -1.999289            0.272518
 C            5.663497           -2.475164            0.776333
 C            6.690596           -1.609642            1.003520
 C            6.524529           -0.211861            0.719406
 C            5.312042            0.275759            0.329388
 C            4.163335           -0.586798            0.179739
 C            1.050102            1.715393           -0.031229
 C           -0.095552            0.915959           -0.161724
 C           -1.344082            1.441934           -0.533940
 H            0.520793           -1.877103            4.192356
 H            0.083979            0.518558            3.745884
 H           -1.481720            1.203592            1.951892
 H           -0.814532           -3.625296            3.005151
 H           -2.685443           -4.198607            1.494489
 H           -4.877011           -4.649262            0.435917
 H           -6.997011           -3.768390           -0.553587
 H           -7.289238           -1.329331           -0.855933
 H           -5.398068            0.227694           -0.463864
 H           -3.884746           -1.046540           -2.412102
 H           -5.500193           -0.306622           -4.147559
 H           -5.968424            2.095632           -4.491678
 H           -4.570974            3.814404           -3.329710
 H           -2.619903            4.341536           -1.900578
 H           -0.394617            4.731741           -0.826271
 H            1.829633            5.064744            0.264347
 H            3.778968            5.348324            1.764638
 H            5.398089            4.343493            3.384113
 H            5.345768            1.914250            3.832147
 H            3.921105            0.404276            2.469233
 H            1.187587            0.531652           -2.259910
 H           -0.216403           -1.062598           -3.535339
 H           -0.147257           -3.486269           -3.032653
 H            1.544172           -4.369526           -1.417520
 H            3.521955           -3.962553            0.007061
 H            5.776796           -3.545466            0.939921
 H            7.653453           -1.953302            1.376500
 H            7.391216            0.440886            0.808283
 H            5.197173            1.331672            0.071418
 H           -0.013591           -0.160162            0.037556

