96

 C           -1.285922            8.803441            0.031251
 C           -0.759611            8.644874           -1.258838
 C           -0.201558            7.440314           -1.719385
 C           -0.165615            6.321789           -0.884052
 N            0.564248            5.133772           -1.190824
 C            1.155123            4.175870           -0.323880
 C            1.355790            2.868801           -0.733187
 C            1.473603            1.661521            0.116379
 N            1.714896            0.448663           -0.407696
 C            1.583204           -0.595125            0.495078
 C            2.019087           -1.855075            0.036340
 C            1.877558           -2.907871            0.886829
 C            2.103696           -4.258118            0.347519
 C            3.176685           -5.017929            0.757212
 C            4.244222           -4.533625            1.628102
 C            5.259076           -5.345941            2.008410
 C            5.313938           -6.724777            1.561848
 C            4.352109           -7.219711            0.751950
 C            3.240904           -6.394426            0.305147
 C            2.258167           -6.909364           -0.505228
 C            1.162509           -6.112408           -0.963993
 C            0.154856           -6.647539           -1.777210
 C           -0.903209           -5.859827           -2.250899
 C           -1.946365           -6.414391           -3.057105
 C           -2.977080           -5.644217           -3.539084
 C           -4.033923           -6.229854           -4.349819
 C           -5.042330           -5.475714           -4.840452
 C           -5.094283           -4.052167           -4.567412
 C           -4.134237           -3.453566           -3.822803
 C           -3.020427           -4.218994           -3.271304
 C           -2.001566           -3.673179           -2.522052
 C           -1.875097           -2.224011           -2.342553
 C           -2.069324           -1.720897           -1.051923
 C           -1.650655           -0.417717           -0.853623
 N           -1.823172            0.083810            0.513726
 C           -1.649051            1.352486            0.663380
 C           -1.730475            1.963794            2.003297
 C           -1.271104            3.270209            2.326841
 N           -0.861373            3.714993            3.612344
 C           -0.088264            4.920832            3.897937
 C           -0.017853            5.402697            5.209079
 C            0.567051            6.660536            5.447030
 C            1.130379            7.478566            4.457523
 C            1.175109            6.989807            3.152602
 C            0.640690            5.708072            3.021100
 N            0.664964            5.514720            1.603550
 C            1.183264            4.133581            1.172625
 C           -0.868579            3.439629           -0.177992
 C           -1.176685            2.105486           -0.518626
 N           -0.842735            1.717242           -1.728535
 C           -1.140292            0.365298           -1.922693
 C           -0.993374           -0.125876           -3.221400
 C           -1.387919           -1.449980           -3.425451
 C           -0.940989           -4.462194           -1.932255
 C            0.052224           -3.942432           -1.083119
 C            1.094257           -4.735236           -0.570146
 C            1.375007           -2.802349            2.231095
 C            0.946682           -1.608320            2.707899
 C            1.064596           -0.511943            1.839488
 N            0.746291            0.662449            2.411779
 C            1.073569            1.756640            1.490841
 C            0.910696            3.086849            1.933524
 C           -1.260966            4.186629            0.961730
 N           -0.806670            5.575382            1.346555
 C           -0.837288            6.536195            0.334206
 C           -1.305073            7.710096            0.876993
 H           -1.683610            9.752060            0.385945
 H           -0.769403            9.500305           -1.929192
 H            0.218537            7.343400           -2.717922
 H            1.375880            2.696781           -1.822476
 H            2.419813           -1.870138           -0.982317
 H            4.212533           -3.493695            1.958918
 H            6.063097           -4.994130            2.655036
 H            6.146022           -7.343740            1.892102
 H            4.365484           -8.248795            0.400943
 H            2.297178           -7.949407           -0.818856
 H            0.195755           -7.699328           -2.046998
 H           -1.904824           -7.477285           -3.282753
 H           -3.967993           -7.298910           -4.537871
 H           -5.833594           -5.916482           -5.444257
 H           -5.931723           -3.490950           -4.980943
 H           -4.181996           -2.383920           -3.611623
 H           -2.477555           -2.270065           -0.211314
 H           -1.621743            1.254390            2.850313
 H           -0.434063            4.785047            5.995404
 H            0.561511            7.036515            6.460778
 H            1.523743            8.473426            4.626318
 H            1.536778            7.517490            2.262304
 H            0.137676            4.434181           -2.057382
 H           -0.585951            0.520663           -3.999159
 H           -1.284550           -1.885806           -4.414425
 H            0.015301           -2.882584           -0.811089
 H            1.313528           -3.684590            2.859549
 H            0.536050           -1.416922            3.703675
 H           -0.130645            2.893123            3.895616
 H           -1.648759            7.744460            1.920436

