96

 C           -8.593142            1.359584            5.458396
 C           -7.829214            2.165297            4.686799
 C           -7.009448            1.600085            3.618860
 N           -6.257975            2.390863            2.863756
 C           -5.485456            1.800048            1.860159
 C           -4.676803            2.614236            1.053424
 C           -3.884028            2.021270            0.058950
 N           -3.062402            2.829331           -0.729125
 C           -2.304570            2.245471           -1.649219
 C           -1.422172            3.058338           -2.478849
 C           -0.620135            2.470316           -3.394234
 C           -0.617486            1.033418           -3.585044
 C           -1.425220            0.209537           -2.867443
 C           -1.397848           -1.256608           -3.089004
 C           -1.969229           -1.804831           -4.225885
 C           -2.686464           -1.006203           -5.210835
 C           -3.223176           -1.568744           -6.320506
 C           -3.098219           -2.990341           -6.564659
 C           -2.452257           -3.784264           -5.677664
 C           -1.865175           -3.235155           -4.462511
 C           -1.219007           -4.042250           -3.553851
 C           -0.652292           -3.504044           -2.354896
 C           -0.012930           -4.328691           -1.415450
 C            0.502026           -3.807864           -0.218374
 C            1.142943           -4.646437            0.749040
 C            1.617075           -4.133963            1.935175
 C            2.268098           -4.984674            2.922652
 C            2.715068           -4.479055            4.096994
 C            2.557474           -3.071560            4.399481
 C            1.962200           -2.235721            3.514939
 C            1.462580           -2.719404            2.234869
 C            0.848077           -1.890268            1.313372
 C            0.621082           -0.455272            1.611906
 C            1.697824            0.510136            1.351350
 N            2.865438            0.111359            0.866494
 C            3.848129            1.075324            0.631166
 C            5.090623            0.672767            0.116480
 C            6.079779            1.640333           -0.119502
 N            7.318472            1.237862           -0.625226
 C            8.237476            2.170725           -0.838698
 C            9.550652            1.803350           -1.361414
 C           10.485536            2.754153           -1.585138
 C           10.219675            4.157723           -1.315361
 C            9.027716            4.568913           -0.827113
 C            7.968795            3.600192           -0.558562
 N            6.800320            4.004591           -0.077290
 C            5.818933            3.038870            0.160954
 C            4.576980            3.440486            0.675587
 C            3.589242            2.472733            0.913727
 N            2.352571            2.871944            1.425064
 C            1.432441            1.939859            1.639806
 C            0.125629            2.319209            2.166214
 C           -0.820303            1.377544            2.379956
 C           -0.570457           -0.022927            2.099708
 C            0.375775           -2.400931            0.050249
 C           -0.211557           -1.572692           -0.918481
 C           -0.745235           -2.089926           -2.109707
 C           -2.323340            0.776329           -1.849937
 N           -3.110443           -0.004743           -1.122817
 C           -3.910187            0.586929           -0.142820
 C           -4.729368           -0.227042            0.655860
 C           -5.512506            0.364309            1.659449
 N           -6.313705           -0.448449            2.465769
 C           -7.039131            0.133192            3.412102
 C           -7.890504           -0.670742            4.284705
 C           -8.624566           -0.079503            5.254063
 H           -9.212242            1.764218            6.261092
 H           -7.787617            3.248773            4.821351
 H           -4.663104            3.700194            1.197353
 H           -1.445006            4.138661           -2.315693
 H            0.054540            3.058816           -4.019703
 H            0.066958            0.627896           -4.335131
 H           -2.788793            0.062262           -5.018533
 H           -3.764457           -0.974842           -7.055303
 H           -3.541190           -3.390922           -7.475151
 H           -2.351368           -4.856451           -5.841384
 H           -1.132495           -5.114588           -3.727844
 H            0.078617           -5.395622           -1.616786
 H            1.245357           -5.707324            0.522711
 H            2.380145           -6.039897            2.677366
 H            3.203292           -5.106686            4.841006
 H            2.935260           -2.713780            5.355866
 H            1.847989           -1.173236            3.732207
 H            5.285731           -0.384597           -0.097123
 H            9.726615            0.742398           -1.554048
 H           11.471878            2.498268           -1.975695
 H           11.022206            4.867488           -1.522911
 H            8.803731            5.617007           -0.615454
 H            4.380191            4.496484            0.890172
 H           -0.038604            3.380897            2.367371
 H           -1.806409            1.641945            2.768619
 H           -1.384407           -0.727712            2.290847
 H           -0.262436           -0.497963           -0.733738
 H           -4.754812           -1.311894            0.498835
 H           -7.897711           -1.749437            4.110812
 H           -9.265341           -0.664576            5.916128

