100

 C           -4.362751            6.485712            5.740164
 C           -3.436361            6.314779            4.766870
 C           -3.483627            5.159423            3.886437
 C           -2.568668            4.932312            2.886184
 C           -2.671615            3.763780            2.060703
 C           -1.757673            3.476270            1.040091
 C           -1.903015            2.309738            0.266528
 N           -0.964939            2.057920           -0.734390
 C           -1.079307            0.948876           -1.460838
 C           -0.081889            0.678253           -2.496784
 C           -0.140469           -0.454669           -3.231843
 C           -1.197569           -1.433006           -3.016547
 C           -1.155102           -2.697495           -3.790773
 C           -1.655453           -2.778580           -5.077132
 C           -2.214537           -1.626879           -5.771724
 C           -2.690821           -1.731233           -7.035551
 C           -2.661768           -2.999639           -7.734289
 C           -2.161474           -4.106053           -7.134091
 C           -1.636709           -4.054180           -5.775805
 C           -1.140150           -5.178105           -5.154905
 C           -0.607174           -5.118490           -3.827162
 C           -0.106381           -6.259082           -3.179206
 C            0.444765           -6.184026           -1.889725
 C            0.925232           -7.347799           -1.207934
 C            1.475644           -7.261090            0.050934
 C            1.940224           -8.446881            0.758765
 C            2.498348           -8.354106            1.989430
 C            2.654005           -7.065543            2.632289
 C            2.234753           -5.931996            2.020289
 C            1.610297           -5.968816            0.704961
 C            1.153604           -4.829628            0.067415
 C            1.292370           -3.484304            0.675839
 C            0.385693           -3.120107            1.756089
 C            0.397218           -1.875843            2.284115
 C            1.313081           -0.855979            1.772189
 N            1.251221            0.373118            2.278415
 C            2.097062            1.357406            1.767452
 C            1.996576            2.660417            2.289222
 C            2.809678            3.684395            1.789206
 C            2.739012            5.033653            2.270679
 C            3.537462            6.009387            1.723241
 C            3.510591            7.398287            2.150604
 C            4.315666            8.320036            1.570154
 C            5.227192            7.949985            0.503479
 C            5.302456            6.674502            0.059719
 C            4.462535            5.633317            0.650918
 N            4.569171            4.388479            0.192006
 C            3.755690            3.395133            0.736407
 C            3.866357            2.089465            0.224922
 C            3.049404            1.066752            0.720762
 C            3.100558           -0.274648            0.216506
 C            2.248841           -1.234110            0.710518
 C            2.202374           -2.591643            0.202133
 C            0.527396           -4.909156           -1.230377
 C           -0.010629           -3.780124           -1.866309
 C           -0.587228           -3.854459           -3.143022
 C           -2.170795           -1.214125           -2.093175
 C           -2.158369           -0.022491           -1.266357
 C           -3.095085            0.225472           -0.291224
 C           -3.000084            1.404504            0.519311
 C           -3.916513            1.694082            1.536887
 C           -3.767382            2.857019            2.313979
 N           -4.696637            3.097801            3.325589
 C           -4.563156            4.187347            4.078350
 C           -5.534157            4.427129            5.145462
 C           -5.430737            5.522284            5.932581
 H           -4.337219            7.347204            6.406532
 H           -2.630272            7.031271            4.612821
 H           -1.751344            5.629677            2.699728
 H           -0.919765            4.146208            0.833542
 H            0.701105            1.428460           -2.632176
 H            0.598727           -0.676871           -4.003112
 H           -2.233111           -0.676469           -5.235460
 H           -3.107073           -0.872769           -7.560878
 H           -3.054272           -3.027827           -8.749877
 H           -2.133131           -5.067714           -7.645100
 H           -1.139521           -6.140195           -5.666686
 H           -0.146158           -7.222176           -3.687245
 H            0.839372           -8.310814           -1.710792
 H            1.817777           -9.407601            0.259938
 H            2.844911           -9.234896            2.528310
 H            3.118057           -7.043465            3.617406
 H            2.352614           -4.956205            2.494727
 H           -0.301477           -3.888507            2.114164
 H           -0.271888           -1.573631            3.093252
 H            1.269004            2.858747            3.079473
 H            2.038996            5.261750            3.074891
 H            2.819681            7.664323            2.949580
 H            4.304993            9.364020            1.881059
 H            5.845829            8.738612            0.074378
 H            5.973948            6.367565           -0.744615
 H            4.589587            1.891179           -0.569183
 H            3.818671           -0.508170           -0.570807
 H            2.902192           -2.860992           -0.590169
 H            0.018757           -2.813738           -1.352722
 H           -2.974159           -1.934559           -1.933451
 H           -3.918402           -0.466914           -0.109489
 H           -4.752085            1.021700            1.744113
 H           -6.326241            3.685448            5.266228
 H           -6.144162            5.714998            6.734262

