100

 C            5.626669            0.344856           -3.260436
 C            5.205790           -1.041678           -3.177363
 C            3.906960           -1.367959           -2.987496
 C            2.891794           -0.322534           -2.860577
 N            1.624954           -0.681931           -2.672930
 C            0.645656            0.304334           -2.563844
 C            0.981286            1.706147           -2.649963
 C            2.361442            2.056407           -2.835432
 C            3.317367            1.076812           -2.947959
 C            4.729703            1.353699           -3.150500
 C           -0.024649            2.671678           -2.552906
 C           -1.365762            2.282863           -2.380730
 N           -2.331721            3.285204           -2.309031
 C           -3.610526            2.941990           -2.160030
 C           -4.621310            3.996099           -2.098592
 C           -5.931348            3.680518           -1.974440
 C           -6.366334            2.299160           -1.889577
 C           -5.470534            1.283457           -1.924519
 C           -4.048633            1.549166           -2.061949
 C           -3.097992            0.556940           -2.114620
 C           -1.712272            0.884873           -2.284951
 C           -0.698624           -0.091097           -2.364402
 C           -1.030758           -1.530281           -2.211333
 C           -1.476688           -2.279293           -3.286394
 C           -1.626758           -1.717911           -4.621623
 C           -2.067134           -2.472109           -5.657352
 C           -2.403009           -3.867231           -5.463895
 C           -2.278261           -4.444019           -4.244606
 C           -1.805917           -3.682104           -3.096077
 C           -1.670484           -4.264085           -1.856035
 C           -1.196155           -3.514130           -0.732813
 C           -1.037924           -4.105943            0.530116
 C           -0.549777           -3.373709            1.623663
 C           -0.373040           -3.977356            2.909456
 C            0.117124           -3.256324            3.974678
 C            0.302574           -3.867883            5.283828
 C            0.791459           -3.154937            6.326795
 C            1.140761           -1.758931            6.166310
 C            0.988048           -1.142065            4.969730
 C            0.470857           -1.855903            3.810531
 C            0.310568           -1.251809            2.575891
 C            0.686798            0.168814            2.362449
 C            1.953108            0.489319            1.830784
 C            2.935885           -0.504619            1.511825
 C            4.163447           -0.136877            1.012089
 C            5.204195           -1.093196            0.676470
 C            6.403788           -0.676571            0.204031
 C            6.680920            0.734839            0.016856
 C            5.749224            1.675593            0.297570
 C            4.437067            1.285644            0.809344
 N            3.541736            2.236353            1.077772
 C            2.297581            1.869436            1.587405
 C            1.370735            2.890965            1.867496
 C            0.118633            2.578195            2.403058
 C           -0.854778            3.588491            2.711242
 C           -2.065459            3.243134            3.259185
 C           -3.095805            4.208491            3.605289
 C           -4.262612            3.808674            4.164628
 C           -4.522325            2.405578            4.431008
 C           -3.612062            1.454950            4.120128
 C           -2.332543            1.824553            3.514364
 N           -1.461693            0.862049            3.226211
 C           -0.230070            1.201662            2.667673
 C           -0.210833           -1.987123            1.450347
 C           -0.392978           -1.393541            0.191703
 C           -0.869882           -2.124570           -0.907418
 H            6.687514            0.539605           -3.410868
 H            5.975433           -1.807585           -3.272991
 H            3.559042           -2.401023           -2.923457
 H            2.626624            3.114134           -2.880006
 H            5.032363            2.399000           -3.206235
 H            0.215020            3.736172           -2.609245
 H           -4.265154            5.026035           -2.160508
 H           -6.699674            4.453168           -1.935335
 H           -7.435638            2.112699           -1.798896
 H           -5.782432            0.240764           -1.857674
 H           -3.378586           -0.497491           -2.033667
 H           -1.360243           -0.668818           -4.758762
 H           -2.177213           -2.057581           -6.657836
 H           -2.753402           -4.428505           -6.328481
 H           -2.523124           -5.492660           -4.082242
 H           -1.915831           -5.314646           -1.706316
 H           -1.295450           -5.155608            0.663271
 H           -0.638597           -5.027242            3.025501
 H            0.031676           -4.917409            5.387680
 H            0.933583           -3.603298            7.308731
 H            1.523099           -1.228193            7.036321
 H            1.236878           -0.087647            4.840881
 H            2.686173           -1.557714            1.673768
 H            4.978497           -2.150530            0.818436
 H            7.191862           -1.383427           -0.050557
 H            7.666642            1.008052           -0.360015
 H            5.928833            2.743237            0.161827
 H            1.647166            3.927401            1.660881
 H           -0.605406            4.629323            2.498752
 H           -2.890694            5.258199            3.397018
 H           -5.041107            4.522497            4.431755
 H           -5.476851            2.149188            4.891296
 H           -3.779851            0.391413            4.303964
 H           -0.151029           -0.334728            0.062878

