100

 C            0.531720            7.789474           -0.317915
 C            1.317765            7.621613            0.953299
 C            1.367482            6.053001            1.219949
 C            1.653491            5.078444            0.106844
 N            2.197933            3.932283            0.366724
 C            2.069182            2.852722           -0.564748
 C            2.458891            1.611978           -0.128772
 C            2.265419            0.453746           -0.959796
 C            2.434570           -0.858589           -0.497704
 C            2.204777           -1.940665           -1.359868
 C            1.897539           -1.656677           -2.738265
 N            1.702372           -0.388478           -3.193842
 C            1.823084            0.643489           -2.316927
 C            1.419555            1.965402           -2.747413
 C            1.457855            3.016974           -1.880872
 C            0.816113            4.320499           -2.244549
 C            0.944458            5.419899           -1.169087
 C            0.940322            6.888275           -1.527014
 C            1.763429           -2.750119           -3.678371
 C            1.872917           -4.035653           -3.245999
 C            2.095308           -4.331062           -1.857489
 C            2.242718           -3.326889           -0.940612
 C            2.398661           -3.649692            0.500050
 C            3.650659           -3.884790            1.040487
 C            4.870727           -3.804736            0.248302
 C            6.083771           -4.053985            0.797544
 C            6.204089           -4.405759            2.197359
 C            5.104092           -4.487744            2.983448
 C            3.774600           -4.229106            2.447167
 C            2.652338           -4.308545            3.239648
 C            1.347206           -4.060807            2.705839
 C            0.202846           -4.135543            3.515164
 C           -1.078015           -3.899893            2.992657
 C           -2.243794           -3.964822            3.821789
 C           -3.498434           -3.725528            3.309664
 C           -4.687185           -3.779645            4.150157
 C           -5.917329           -3.533979            3.639343
 C           -6.081464           -3.213078            2.236491
 C           -5.010002           -3.156668            1.409563
 C           -3.661933           -3.410535            1.900094
 C           -2.551793           -3.357311            1.076343
 C           -2.692192           -3.070505           -0.373178
 C           -2.843647           -4.089890           -1.271585
 C           -2.895814           -3.824969           -2.683453
 C           -2.751632           -2.560552           -3.165307
 C           -2.570141           -1.453894           -2.248385
 N           -2.339149           -0.216110           -2.765807
 C           -2.160716            0.824201           -1.908032
 C           -1.707559            2.090736           -2.442598
 C           -1.446290            3.138112           -1.610054
 C           -0.772584            4.370481           -2.125354
 C           -0.655505            5.536589           -1.109320
 C           -0.592834            6.933723           -1.861749
 C           -0.623635            8.335823           -1.172220
 C           -0.184203            7.502905            1.071233
 C           -0.237650            6.034213            1.387226
 C           -0.973511            5.217421            0.330912
 N           -1.501067            4.100823            0.725762
 C           -1.774994            3.041833           -0.191508
 C           -2.214966            1.857585            0.342866
 C           -2.334429            0.688183           -0.485226
 C           -2.543776           -0.596242            0.034646
 C           -2.609953           -1.698133           -0.829437
 C           -1.225234           -3.584130            1.597189
 C           -0.076150           -3.503352            0.793311
 C            1.209149           -3.730960            1.312685
 H           -1.537246            8.617400           -0.641262
 H            2.036043            8.285253            1.389789
 H            1.912069            5.822999            2.149923
 H            2.894581            1.481554            0.864830
 H            2.727550           -1.039942            0.539804
 H            1.028626            2.058013           -3.763331
 H            1.153037            4.655293           -3.246643
 H            1.713133            7.303904           -2.165757
 H            1.566482           -2.495450           -4.721290
 H            1.780813           -4.873263           -3.937773
 H            2.129652           -5.377065           -1.552202
 H            4.770893           -3.535987           -0.805121
 H            6.998233           -3.997625            0.208688
 H            7.202239           -4.598682            2.588085
 H            5.175620           -4.750064            4.038223
 H            2.735956           -4.566150            4.295346
 H            0.311976           -4.380713            4.571349
 H           -2.112135           -4.207518            4.876082
 H           -4.545535           -4.024214            5.202140
 H           -6.812081           -3.569422            4.259347
 H           -7.090740           -3.020325            1.875487
 H           -5.123615           -2.915285            0.350995
 H           -2.910101           -5.125613           -0.937763
 H           -3.039313           -4.671289           -3.355419
 H           -2.757297           -2.333748           -4.233083
 H           -1.527942            2.138791           -3.519196
 H           -1.236638            4.678574           -3.085088
 H           -1.003791            6.900106           -2.867273
 H           -0.378084            9.141508           -1.876875
 H           -0.899064            8.213126            1.452383
 H           -0.556533            5.762732            2.409570
 H           -2.442862            1.776091            1.408257
 H           -2.633007           -0.741520            1.114654
 H           -0.184903           -3.252860           -0.267122

