100

 C           10.569159            2.719552            2.535552
 C            9.678990            1.757564            2.193665
 C            8.390258            2.104149            1.617518
 C            7.447373            1.172022            1.255493
 C            6.194233            1.588584            0.694169
 C            5.198021            0.681882            0.313936
 C            3.988818            1.148042           -0.236294
 N            3.024263            0.211102           -0.603438
 C            1.877459            0.630284           -1.130840
 C            0.855192           -0.352614           -1.522682
 C            1.114661           -1.802026           -1.337479
 C            1.850914           -2.512911           -2.269929
 C            2.469728           -1.880044           -3.426740
 C            3.171249           -2.601176           -4.334107
 C            3.330329           -4.031613           -4.177001
 C            2.783790           -4.673202           -3.116732
 C            2.014419           -3.948881           -2.113651
 C            1.434619           -4.599522           -1.048589
 C            0.673821           -3.885163           -0.068882
 C            0.057017           -4.548845            1.002538
 C           -0.691053           -3.847688            1.961081
 C           -1.353894           -4.529570            3.030568
 C           -2.099964           -3.841510            3.960273
 C           -2.786764           -4.533086            5.043124
 C           -3.515028           -3.850719            5.958924
 C           -3.636869           -2.410516            5.876412
 C           -3.015992           -1.719597            4.890002
 C           -2.205671           -2.394191            3.885359
 C           -1.543005           -1.709742            2.879520
 C           -1.548146           -0.225850            2.854393
 C           -2.441201            0.492599            1.931328
 N           -3.243449           -0.195238            1.123958
 C           -4.070916            0.491851            0.237154
 C           -4.908739           -0.256914           -0.610601
 C           -5.743657            0.392193           -1.527606
 C           -6.617153           -0.318514           -2.416499
 C           -7.408833            0.366627           -3.306888
 C           -8.313267           -0.285117           -4.239541
 C           -9.064068            0.440685           -5.102102
 C           -8.991499            1.889909           -5.119039
 C           -8.174061            2.559254           -4.274207
 C           -7.337746            1.830391           -3.321571
 N           -6.544274            2.523547           -2.507703
 C           -5.739424            1.835101           -1.600450
 C           -4.909077            2.583555           -0.747185
 C           -4.076220            1.934076            0.171007
 C           -3.209735            2.643922            1.065132
 C           -2.399221            1.959010            1.939005
 C           -1.500968            2.629832            2.862600
 C           -0.701893            1.916930            3.690925
 C           -0.724038            0.470031            3.681714
 C           -0.797015           -2.415984            1.868259
 C           -0.179825           -1.757536            0.792353
 C            0.530162           -2.459422           -0.194666
 C           -0.324188            0.066695           -2.052595
 C           -0.607226            1.470836           -2.258713
 C            0.299878            2.418873           -1.924430
 C            1.579015            2.050619           -1.343177
 C            2.523965            2.981045           -0.980608
 C            3.771185            2.564571           -0.410833
 C            4.765486            3.471878           -0.027088
 C            5.972582            3.006070            0.523359
 N            6.934116            3.946226            0.893353
 C            8.083377            3.522732            1.414457
 C            9.085118            4.515170            1.802228
 C           10.264980            4.124261            2.335520
 H           11.537452            2.472170            2.969443
 H            9.897280            0.699670            2.338553
 H            7.629087            0.103783            1.385176
 H            5.343220           -0.394794            0.437610
 H            2.357003           -0.800140           -3.529756
 H            3.637214           -2.131010           -5.197834
 H            3.902368           -4.564084           -4.934773
 H            2.899268           -5.747165           -2.978850
 H            1.542603           -5.676843           -0.930489
 H            0.155626           -5.630286            1.088827
 H           -1.258027           -5.613088            3.087737
 H           -2.691762           -5.617218            5.083833
 H           -4.029605           -4.357396            6.773462
 H           -4.246451           -1.909538            6.625945
 H           -3.116703           -0.636488            4.811435
 H           -4.894544           -1.348095           -0.540528
 H           -6.634912           -1.408608           -2.366408
 H           -8.361087           -1.373754           -4.216542
 H           -9.743699           -0.036565           -5.807449
 H           -9.620516            2.417033           -5.837053
 H           -8.100260            3.648618           -4.262487
 H           -4.926906            3.673688           -0.812981
 H           -3.210883            3.734545            1.033112
 H           -1.497194            3.719579            2.859612
 H           -0.018309            2.404160            4.386729
 H           -0.049981           -0.050669            4.366075
 H           -0.261444           -0.670148            0.716280
 H           -1.096481           -0.652085           -2.337419
 H           -1.574373            1.729931           -2.691264
 H            0.103676            3.479430           -2.079489
 H            2.346883            4.048757           -1.118553
 H            4.618989            4.547245           -0.149811
 H            8.828759            5.563904            1.638884
 H           11.023016            4.850483            2.630558

