96

 C           -2.203308            5.942582            0.650346
 C           -2.937191            5.570450           -0.447353
 C           -3.162710            4.185819           -0.725914
 C           -2.625589            3.197609            0.139909
 C           -1.864560            3.610556            1.289484
 C           -1.664287            4.959081            1.521327
 C           -1.319097            2.584174            2.196859
 C           -0.595806            2.929125            3.324166
 C           -0.074644            1.935940            4.194525
 C           -0.277260            0.604855            3.930910
 C           -1.016181            0.206044            2.773383
 C           -1.545405            1.194277            1.902645
 C           -2.290105            0.780438            0.742555
 C           -2.459012           -0.566736            0.488574
 C           -1.910074           -1.554146            1.357790
 C           -2.077866           -2.983849            0.994410
 C           -3.181011           -3.706345            1.411211
 C           -4.218317           -3.129573            2.255678
 C           -5.284561           -3.861444            2.658989
 C           -5.425227           -5.246317            2.258344
 C           -4.495112           -5.832757            1.467523
 C           -3.330718           -5.092720            0.998657
 C           -2.392060           -5.675892            0.178108
 C           -1.241977           -4.948596           -0.267834
 C           -0.288018           -5.529693           -1.117498
 C            0.847821           -4.817543           -1.534800
 C            1.810672           -5.398910           -2.420256
 C            2.922670           -4.696013           -2.825410
 C            3.900533           -5.280199           -3.733944
 C            4.994594           -4.584665           -4.126455
 C            5.218505           -3.235094           -3.650943
 C            4.342926           -2.647179           -2.800601
 C            3.151141           -3.345461           -2.338152
 C            2.246520           -2.769998           -1.462473
 C            2.502071           -1.429269           -0.877008
 C            3.389039           -1.294727            0.167107
 C            3.622649           -0.012346            0.750002
 C            2.932589            1.124716            0.254973
 C            3.175448            2.408581            0.857713
 C            4.080067            2.509439            1.899152
 C            4.769948            1.368076            2.385976
 C            4.549008            0.133817            1.830073
 C            2.454154            3.589792            0.349816
 C            2.649117            4.844707            0.897631
 C            1.950586            5.978182            0.404700
 C            1.062185            5.847310           -0.632354
 C            0.833770            4.567153           -1.228067
 C            1.528804            3.429903           -0.740219
 C            1.290088            2.146747           -1.346963
 C            0.389345            2.048783           -2.391484
 C           -0.303420            3.190274           -2.874778
 C           -0.089842            4.422183           -2.310188
 C            2.009307            0.963773           -0.837774
 C            1.813315           -0.290661           -1.384874
 C            1.054314           -3.474643           -1.062184
 C            0.088757           -2.892727           -0.226351
 C           -1.063904           -3.589554            0.167383
 C           -1.213272           -1.179176            2.482520
 C           -2.853858            1.807460           -0.153829
 C           -3.595532            1.463013           -1.269030
 C           -4.133615            2.456446           -2.128866
 C           -3.924338            3.787190           -1.868900
 H           -2.022892            6.993240            0.873791
 H           -3.359585            6.315294           -1.118852
 H           -1.081734            5.295363            2.380644
 H           -0.407395            3.976288            3.565454
 H            0.490129            2.252468            5.070505
 H            0.122344           -0.165267            4.588666
 H           -3.012380           -0.907801           -0.388948
 H           -4.101688           -2.085001            2.551896
 H           -6.061859           -3.435868            3.291693
 H           -6.298886           -5.790950            2.613986
 H           -4.584042           -6.873221            1.157558
 H           -2.505635           -6.709213           -0.147923
 H           -0.431860           -6.553642           -1.460594
 H            1.640385           -6.416832           -2.769296
 H            3.715314           -6.295584           -4.082031
 H            5.731229           -5.012386           -4.805151
 H            6.108498           -2.715201           -4.002002
 H            4.500464           -1.628178           -2.440699
 H            3.918049           -2.160784            0.564370
 H            4.282502            3.472755            2.369015
 H            5.475260            1.493771            3.206526
 H            5.069691           -0.749363            2.196271
 H            3.348269            4.989049            1.722635
 H            2.136677            6.947821            0.864153
 H            0.516609            6.707434           -1.016463
 H            0.187913            1.085853           -2.864380
 H           -1.009692            3.065412           -3.694745
 H           -0.622113            5.302587           -2.666279
 H            1.120924           -0.438240           -2.216299
 H            0.237990           -1.866956            0.128640
 H           -0.794094           -1.926833            3.155449
 H           -3.783140            0.415243           -1.510517
 H           -4.714663            2.139601           -2.994147
 H           -4.332552            4.556978           -2.521165

