102

 C           10.379087            1.149914           -3.492466
 C            9.502646            0.514725           -2.677808
 C            8.198152            1.091414           -2.382609
 C            7.291098            0.457554           -1.563612
 C            6.012463            1.038755           -1.279724
 C            5.082289            0.392667           -0.449272
 C            3.834517            0.970402           -0.179325
 C            2.853450            0.346588            0.658190
 C            1.640124            0.954371            0.881799
 C            0.585503            0.384827            1.714049
 C            0.799861           -0.936820            2.356796
 C            1.396593           -1.040940            3.600430
 C            1.911890            0.117418            4.317697
 C            2.496560           -0.010702            5.532800
 C            2.624617           -1.310605            6.158594
 C            2.157716           -2.421860            5.540844
 C            1.516861           -2.344279            4.234723
 C            1.020323           -3.465875            3.610366
 C            0.401719           -3.384500            2.321650
 C           -0.131791           -4.517564            1.688752
 C           -0.732675           -4.431165            0.422693
 C           -1.319207           -5.576949           -0.203118
 C           -1.921129           -5.484946           -1.437500
 C           -2.536592           -6.644532           -2.069236
 C           -3.132361           -6.547646           -3.281730
 C           -3.171250           -5.281179           -3.982642
 C           -2.607553           -4.173915           -3.442800
 C           -1.947816           -4.214706           -2.144613
 C           -1.360284           -3.098254           -1.573490
 C           -1.295157           -1.812670           -2.314023
 C           -2.164426           -0.707070           -1.919963
 C           -3.079565           -0.775044           -0.895038
 C           -3.864800            0.370855           -0.543452
 C           -4.787323            0.367468            0.511485
 C           -5.518673            1.521990            0.835066
 C           -6.454417            1.535290            1.920324
 C           -7.158791            2.673401            2.242954
 C           -8.110724            2.704074            3.344947
 C           -8.788310            3.836426            3.651619
 C           -8.583441            5.051317            2.888198
 C           -7.714912            5.077893            1.849028
 C           -6.959677            3.890733            1.471551
 C           -6.073798            3.897722            0.418298
 C           -5.326611            2.725858            0.067222
 C           -4.413314            2.733599           -0.996462
 C           -3.676037            1.579058           -1.310448
 N           -2.763721            1.635983           -2.362299
 C           -2.039518            0.556340           -2.651601
 C           -1.073785            0.645825           -3.744539
 C           -0.302133           -0.418052           -4.063197
 C           -0.411357           -1.665771           -3.338106
 C           -0.765458           -3.166528           -0.261448
 C           -0.228528           -2.037062            0.376155
 C            0.321491           -2.107919            1.665054
 C           -0.595448            1.038514            1.881336
 C           -0.845872            2.310130            1.236422
 C            0.090447            2.893596            0.454172
 C            1.383386            2.246763            0.240676
 N            2.275651            2.858949           -0.535832
 C            3.507116            2.247979           -0.766443
 C            4.436458            2.899012           -1.595816
 C            5.681822            2.313282           -1.864361
 C            6.640540            2.953469           -2.716593
 C            7.861140            2.374398           -2.979761
 C            8.842559            3.008475           -3.849951
 C           10.039969            2.424020           -4.094285
 H           11.357202            0.728240           -3.719350
 H            9.743512           -0.442953           -2.217662
 H            7.529270           -0.506048           -1.113088
 H            5.333121           -0.573404           -0.009753
 H            3.089429           -0.619579            1.111480
 H            1.811648            1.092307            3.836289
 H            2.885766            0.851974            6.071646
 H            3.106053           -1.357949            7.134502
 H            2.244744           -3.406476            5.998389
 H            1.086634           -4.443482            4.087259
 H           -0.083302           -5.483027            2.191686
 H           -1.281062           -6.528180            0.327475
 H           -2.498751           -7.588975           -1.527793
 H           -3.597393           -7.407652           -3.761686
 H           -3.668962           -5.252454           -4.950865
 H           -2.639010           -3.214364           -3.962538
 H           -3.216564           -1.697764           -0.324960
 H           -4.936259           -0.544085            1.091540
 H           -6.594846            0.616007            2.489165
 H           -8.255436            1.783257            3.908928
 H           -9.502990            3.870470            4.472781
 H           -9.150882            5.933941            3.180424
 H           -7.551193            5.982981            1.264646
 H           -5.919318            4.800645           -0.173224
 H           -4.260180            3.635448           -1.593324
 H           -1.008195            1.602268           -4.267700
 H            0.430136           -0.367713           -4.870036
 H            0.246591           -2.482869           -3.636753
 H           -0.241882           -1.072113           -0.141926
 H           -1.390939            0.620125            2.498761
 H           -1.820974            2.772936            1.398417
 H           -0.074215            3.847210           -0.052391
 H            4.170520            3.865916           -2.028435
 H            6.374640            3.915795           -3.154871
 H            8.573976            3.966514           -4.294161
 H           10.779712            2.888655           -4.744796

