102

 C            4.792716            1.091413            4.811665
 C            4.934849           -0.272090            4.335367
 C            4.460182           -0.642622            3.124334
 C            3.790333            0.331096            2.261847
 N            3.337537           -0.070204            1.077675
 C            2.698209            0.847049            0.244998
 C            2.535450            2.226037            0.638306
 C            3.034857            2.622512            1.923560
 C            3.653548            1.708606            2.741680
 C            4.183015            2.035156            4.055044
 C            1.899910            3.121368           -0.228738
 C            1.415762            2.697429           -1.477317
 C            0.761825            3.611667           -2.365246
 C            0.274817            3.199761           -3.585600
 C           -0.401025            4.113784           -4.495906
 C           -0.874358            3.684728           -5.690787
 C           -0.717400            2.302722           -6.097387
 C           -0.096610            1.410310           -5.288691
 C            0.428157            1.812303           -3.990682
 C            1.054178            0.918337           -3.150988
 C            1.565657            1.321936           -1.874438
 C            2.199255            0.408511           -1.003736
 C            2.320837           -1.025231           -1.371890
 C            3.422050           -1.491827           -2.068269
 C            4.506105           -0.616617           -2.491120
 C            5.573869           -1.097297           -3.172681
 C            5.666967           -2.504699           -3.499198
 C            4.689661           -3.365986           -3.127179
 C            3.520016           -2.905520           -2.390366
 C            2.529183           -3.776920           -1.997650
 C            1.383282           -3.319370           -1.271699
 C            0.379950           -4.204271           -0.846768
 C           -0.739065           -3.750648           -0.130167
 C           -1.747888           -4.653427            0.334355
 C           -2.833662           -4.202874            1.051386
 C           -3.853411           -5.119543            1.543786
 C           -4.918394           -4.669049            2.249858
 C           -5.072064           -3.257673            2.532941
 C           -4.153864           -2.362601            2.095042
 C           -2.988431           -2.785755            1.332050
 C           -2.035415           -1.890820            0.875922
 C           -2.186543           -0.431670            1.108291
 C           -2.978751            0.347231            0.234871
 C           -3.667637           -0.231986           -0.879999
 C           -4.413142            0.537646           -1.745168
 C           -5.102892           -0.041716           -2.889602
 C           -5.817190            0.734260           -3.740208
 C           -5.917703            2.164217           -3.528509
 C           -5.303663            2.754028           -2.474242
 C           -4.519589            1.970729           -1.529581
 C           -3.878022            2.548085           -0.456157
 C           -3.089539            1.766226            0.448487
 C           -2.409946            2.366923            1.521905
 C           -1.613728            1.606658            2.384454
 C           -0.870333            2.192737            3.463123
 C           -0.073217            1.411676            4.263675
 C            0.728574            1.936627            5.356172
 C            1.498229            1.114333            6.108566
 C            1.544808           -0.313124            5.849331
 C            0.821680           -0.865666            4.849195
 C           -0.025713           -0.029096            3.999082
 N           -0.714002           -0.606707            3.019381
 C           -1.503694            0.181752            2.183217
 C           -0.875273           -2.346944            0.151803
 C            0.132094           -1.466221           -0.272488
 C            1.264551           -1.918980           -0.966553
 H            5.194284            1.322625            5.796966
 H            5.438600           -0.983645            4.989299
 H            4.548050           -1.660976            2.738489
 H            2.910432            3.660592            2.230700
 H            4.068230            3.061181            4.401675
 H            1.775923            4.162110            0.069568
 H            0.655540            4.648350           -2.047588
 H           -0.511633            5.149198           -4.176911
 H           -1.384698            4.358231           -6.377897
 H           -1.115521            2.013103           -7.068772
 H            0.028651            0.367088           -5.579281
 H            1.171650           -0.128006           -3.445800
 H            4.427470            0.440296           -2.231965
 H            6.387374           -0.447688           -3.488911
 H            6.546058           -2.839432           -4.047176
 H            4.746419           -4.427603           -3.361833
 H            2.602133           -4.839065           -2.225518
 H            0.476764           -5.265823           -1.067764
 H           -1.629078           -5.713296            0.115149
 H           -3.721830           -6.178006            1.325297
 H           -5.683181           -5.346338            2.626054
 H           -5.942038           -2.946438            3.107503
 H           -4.254518           -1.297178            2.308005
 H           -3.583164           -1.311135           -1.035101
 H           -5.018203           -1.119002           -3.033836
 H           -6.333135            0.312898           -4.601684
 H           -6.501031            2.740810           -4.245018
 H           -5.371091            3.827338           -2.302146
 H           -3.951140            3.620541           -0.278573
 H           -2.495995            3.442203            1.676664
 H           -0.949883            3.267618            3.623302
 H            0.686348            3.008977            5.539965
 H            2.107790            1.494559            6.926854
 H            2.186404           -0.919871            6.487988
 H            0.839209           -1.934730            4.623985
 H            0.038765           -0.400581           -0.043947

