102

 C           -4.841780            0.918017           -5.278228
 C           -4.934526            2.353717           -5.092670
 C           -4.535943            2.937335           -3.938727
 C           -3.998716            2.126551           -2.847060
 N           -3.621986            2.732608           -1.722453
 C           -3.111526            1.964529           -0.676500
 C           -2.726302            2.622130            0.503381
 C           -2.226111            1.895721            1.592285
 C           -1.846246            2.556233            2.806630
 C           -1.366498            1.850153            3.885719
 C           -0.989809            2.504488            5.131356
 C           -0.529130            1.786497            6.183702
 C           -0.390339            0.346493            6.095796
 C           -0.721152           -0.311264            4.958867
 C           -1.231471            0.405278            3.798259
 C           -1.586473           -0.247181            2.639430
 C           -2.095481            0.463952            1.503976
 C           -2.472794           -0.195765            0.314166
 C           -2.343179           -1.672023            0.207043
 C           -3.443992           -2.489108            0.403727
 C           -4.754302           -1.962112            0.760987
 C           -5.816897           -2.781876            0.944982
 C           -5.679339           -4.215703            0.795334
 C           -4.484786           -4.762071            0.464744
 C           -3.310075           -3.928050            0.249489
 C           -2.096501           -4.475201           -0.099316
 C           -0.941338           -3.653132           -0.295068
 C            0.297057           -4.209851           -0.649237
 C            1.435931           -3.407302           -0.815193
 C            2.694982           -3.970911           -1.197001
 C            3.814272           -3.183286           -1.342217
 C            5.093840           -3.749259           -1.747229
 C            6.193582           -2.969235           -1.878392
 C            6.124191           -1.547529           -1.611481
 C            4.958484           -0.971358           -1.231400
 C            3.738755           -1.754422           -1.086892
 C            2.530516           -1.186593           -0.719622
 C            2.435521            0.266815           -0.427016
 C            2.512598            0.716559            0.910344
 C            2.702910           -0.186710            2.006159
 C            2.794769            0.264205            3.303896
 C            3.010971           -0.645668            4.420195
 C            3.112173           -0.182476            5.689375
 C            2.997366            1.234535            5.970072
 C            2.788859            2.124650            4.970039
 C            2.682729            1.685548            3.585331
 C            2.489990            2.572039            2.550056
 C            2.408178            2.125163            1.190724
 C            2.240368            3.037324            0.139154
 C            2.180846            2.590875           -1.190661
 N            2.038150            3.541591           -2.201360
 C            1.985468            3.136580           -3.468763
 C            1.840754            4.138545           -4.523811
 C            1.792090            3.763042           -5.822611
 C            1.880788            2.366073           -6.203978
 C            2.010999            1.395622           -5.267782
 C            2.070557            1.727124           -3.854393
 C            2.207566            0.784893           -2.862685
 C            2.275278            1.180848           -1.486452
 C            1.338838           -1.988913           -0.597984
 C            0.091058           -1.432513           -0.273914
 C           -1.054829           -2.229517           -0.122690
 C           -2.982523            0.530611           -0.781773
 C           -3.392760           -0.082416           -2.010659
 C           -3.900509            0.679169           -3.037177
 C           -4.348917            0.119619           -4.300678
 H           -5.182253            0.510462           -6.228763
 H           -5.336848            2.942396           -5.917255
 H           -4.592600            4.014261           -3.770107
 H           -2.822771            3.709098            0.557098
 H           -1.950166            3.640116            2.852869
 H           -1.094826            3.587308            5.180503
 H           -0.247013            2.264104            7.120431
 H           -0.007081           -0.179472            6.968499
 H           -0.614860           -1.392084            4.873641
 H           -1.485177           -1.332148            2.565313
 H           -4.847429           -0.880163            0.878798
 H           -6.798201           -2.390845            1.210413
 H           -6.563712           -4.830134            0.958704
 H           -4.361779           -5.838226            0.350853
 H           -1.990462           -5.551684           -0.230615
 H            0.376250           -5.286449           -0.796136
 H            2.745526           -5.044768           -1.374638
 H            5.128285           -4.820620           -1.940231
 H            7.154169           -3.381916           -2.183829
 H            7.036695           -0.963960           -1.726002
 H            4.897917            0.098973           -1.022211
 H            2.778548           -1.254307            1.788092
 H            3.090883           -1.707948            4.192402
 H            3.280961           -0.853302            6.529940
 H            3.082847            1.552169            7.007747
 H            2.693568            3.191761            5.166368
 H            2.397123            3.640485            2.743677
 H            2.155978            4.107627            0.340664
 H            1.773876            5.180924           -4.206751
 H            1.683544            4.496221           -6.622003
 H            1.837829            2.130553           -7.266213
 H            2.076426            0.342581           -5.540607
 H            2.270904           -0.279223           -3.103837
 H            0.011531           -0.348808           -0.128953
 H           -3.296325           -1.166482           -2.112276
 H           -4.275160           -0.960294           -4.427328

