102

 C           -4.866332            9.071362            2.338588
 C           -4.096670            8.006516            2.669366
 C           -4.058906            6.817273            1.829824
 C           -3.286426            5.723226            2.150659
 C           -3.267893            4.556557            1.319585
 C           -2.492025            3.432333            1.649447
 C           -2.493578            2.291622            0.836797
 C           -1.735786            1.113897            1.145383
 C           -1.794069            0.015399            0.321230
 C           -1.077858           -1.221717            0.584509
 C           -1.185870           -2.283721           -0.247662
 C           -2.008368           -2.211648           -1.448015
 C           -2.075924           -3.405033           -2.328066
 C           -3.232693           -4.163682           -2.400628
 C           -4.409236           -3.880831           -1.589196
 C           -5.525555           -4.643508           -1.673885
 C           -5.586356           -5.769609           -2.582210
 C           -4.524419           -6.079798           -3.363202
 C           -3.297293           -5.296414           -3.310273
 C           -2.217352           -5.609188           -4.103256
 C           -1.004223           -4.853386           -4.032893
 C            0.099579           -5.174812           -4.837718
 C            1.307324           -4.467970           -4.733635
 C            2.432201           -4.786300           -5.559351
 C            3.625622           -4.113687           -5.427359
 C            4.769559           -4.426385           -6.273109
 C            5.950361           -3.780916           -6.119419
 C            6.104896           -2.762897           -5.100810
 C            5.070131           -2.429181           -4.292532
 C            3.770670           -3.074130           -4.421098
 C            2.692119           -2.740413           -3.620535
 C            2.817122           -1.711880           -2.558547
 C            2.826622           -0.310764           -2.955243
 C            2.911371            0.671179           -2.027502
 C            2.986172            0.360759           -0.609508
 C            3.052919            1.320202            0.372908
 C            3.110154            0.939238            1.753866
 C            3.183074            1.869946            2.798315
 C            3.231067            1.450436            4.138285
 C            3.304660            2.392116            5.215486
 C            3.347659            1.975141            6.527204
 C            3.421429            2.919453            7.633436
 C            3.460453            2.489255            8.917534
 C            3.431528            1.073437            9.225503
 C            3.365476            0.151297            8.235526
 C            3.319797            0.554124            6.836535
 C            3.252275           -0.368082            5.816849
 C            3.206148            0.043157            4.444927
 C            3.137304           -0.894249            3.404064
 C            3.089113           -0.470566            2.065407
 N            3.019892           -1.438333            1.063808
 C            2.976203           -1.048408           -0.209039
 C            2.899583           -2.066638           -1.250379
 C            1.420945           -3.403196           -3.774183
 C            0.294303           -3.046968           -3.015529
 C           -0.917395           -3.747832           -3.116267
 C           -2.691518           -1.078656           -1.754921
 C           -2.629463            0.087794           -0.880275
 N           -3.339913            1.167329           -1.202430
 C           -3.298681            2.280096           -0.362084
 C           -4.070298            3.404782           -0.699178
 C           -4.071162            4.540727            0.124249
 C           -4.862407            5.692551           -0.193384
 C           -4.870015            6.801212            0.622919
 C           -5.676128            7.975407            0.317984
 C           -5.674089            9.055485            1.135672
 H           -4.903321            9.964357            2.960767
 H           -3.485367            8.003957            3.570873
 H           -2.673201            5.723246            3.051560
 H           -1.884121            3.446503            2.554392
 H           -1.120926            1.109836            2.046892
 H           -0.451774           -1.261090            1.478025
 H           -0.660677           -3.220174           -0.052320
 H           -4.358705           -3.031881           -0.904566
 H           -6.404541           -4.434208           -1.065797
 H           -6.507418           -6.349737           -2.611509
 H           -4.549831           -6.922830           -4.052630
 H           -2.262773           -6.447168           -4.798571
 H            0.018506           -5.992388           -5.553756
 H            2.320092           -5.578676           -6.299223
 H            4.635214           -5.197629           -7.030860
 H            6.811052           -4.005833           -6.747348
 H            7.077454           -2.281745           -5.008415
 H            5.181135           -1.668921           -3.517529
 H            2.757713           -0.091545           -4.021645
 H            2.919779            1.723903           -2.312052
 H            3.059819            2.382250            0.123773
 H            3.204855            2.935415            2.568078
 H            3.327913            3.453786            4.970622
 H            3.444721            3.980191            7.387028
 H            3.515240            3.187141            9.751970
 H            3.465505            0.783100           10.274815
 H            3.345032           -0.916709            8.450627
 H            3.233181           -1.436575            6.033380
 H            3.124499           -1.964986            3.619722
 H            2.904485           -3.110889           -0.926891
 H            0.366302           -2.200674           -2.325379
 H           -3.309126           -0.993086           -2.652794
 H           -4.672524            3.377934           -1.609926
 H           -5.464207            5.667159           -1.102141
 H           -6.278898            7.947871           -0.589176
 H           -6.274614            9.937587            0.917863

