92

 C           10.399758            2.361974           -0.559540
 C            9.543096            1.374200           -0.245631
 C            8.130531            1.749602           -0.358018
 C            7.025071            0.981945           -0.115075
 C            5.713412            1.549318           -0.285900
 C            4.555031            0.770242           -0.077757
 C            3.272870            1.291056           -0.260265
 C            3.154858            2.714075           -0.459952
 C            4.286998            3.483893           -0.732037
 C            5.576238            2.920224           -0.677393
 C            6.754177            3.706770           -0.947642
 C            7.970080            3.124673           -0.785791
 S            9.556693            3.845069           -1.026006
 C            1.876539            3.347522           -0.217842
 C            0.917768            2.587560            0.357307
 S           -0.598202            3.164924            1.037905
 C           -0.997442            1.573429            1.686183
 C           -0.100446            0.641973            1.317835
 C            1.002938            1.138090            0.490132
 C            2.056847            0.469396           -0.109042
 C            2.037722           -0.936951           -0.534383
 C            3.108083           -1.561055           -1.178686
 C            4.011204           -0.895378           -2.107106
 C            5.120443           -1.507149           -2.588128
 C            5.458928           -2.853234           -2.172874
 C            4.605794           -3.559921           -1.395731
 C            3.340940           -2.985942           -0.949791
 C            2.404172           -3.744214           -0.297536
 C            1.082010           -3.209526           -0.101987
 C            0.003491           -4.044797            0.159913
 C           -1.328595           -3.577593            0.040304
 C           -2.433522           -4.443738            0.259048
 C           -3.729605           -4.020631            0.020251
 C           -4.864487           -4.904761            0.225975
 C           -6.129760           -4.488813           -0.032749
 C           -6.374808           -3.152542           -0.524093
 C           -5.346953           -2.289142           -0.723571
 C           -3.972884           -2.675911           -0.449875
 C           -2.901107           -1.800611           -0.625159
 C           -3.153634           -0.409872           -1.072791
 C           -2.895285           -0.025578           -2.363698
 C           -2.364986           -0.834909           -3.465832
 C           -2.220195           -0.164102           -4.621276
 S           -2.718672            1.526813           -4.470538
 C           -3.151903            1.340880           -2.775614
 C           -3.649436            2.281906           -1.938000
 C           -3.942392            1.906454           -0.573494
 C           -3.696596            0.559020           -0.135684
 C           -3.989253            0.212806            1.191877
 C           -4.511405            1.148599            2.097143
 C           -4.798616            0.778517            3.462262
 C           -5.301280            1.709971            4.323403
 C           -5.656630            1.545907            5.736536
 C           -6.135018            2.661350            6.314330
 S           -6.194923            4.020900            5.183689
 C           -5.546324            3.063818            3.858197
 C           -5.292530            3.460427            2.587363
 C           -4.755673            2.493877            1.655789
 C           -4.466266            2.843837            0.329336
 C           -1.556756           -2.226293           -0.379554
 C           -0.437967           -1.366043           -0.548596
 C            0.865722           -1.798077           -0.340229
 H           11.477406            2.348584           -0.556763
 H            9.820432            0.375990            0.069907
 H            7.111034           -0.056370            0.201368
 H            4.680893           -0.265693            0.251382
 H            4.178306            4.547735           -0.943095
 H            6.636553            4.740326           -1.268421
 H            1.754609            4.406652           -0.431887
 H           -1.872003            1.461631            2.310249
 H           -0.114486           -0.391505            1.653951
 H            3.727948            0.103101           -2.450148
 H            5.774748           -1.015726           -3.306897
 H            6.400629           -3.272911           -2.523078
 H            4.818161           -4.586232           -1.099429
 H            2.606532           -4.767349            0.010144
 H            0.172753           -5.094015            0.400056
 H           -2.241973           -5.457580            0.609266
 H           -4.659742           -5.910241            0.591209
 H           -6.987890           -5.142333            0.118141
 H           -7.405105           -2.864295           -0.727876
 H           -5.525876           -1.279307           -1.098570
 H           -2.127009           -1.881654           -3.305438
 H           -1.855469           -0.521880           -5.570213
 H           -3.833165            3.308392           -2.251740
 H           -3.808871           -0.810527            1.532117
 H           -4.608576           -0.246422            3.776865
 H           -5.525299            0.588260            6.225435
 H           -6.465494            2.808502            7.329745
 H           -5.476935            4.476169            2.241186
 H           -4.648731            3.865370           -0.006622
 H           -0.621242           -0.340606           -0.890751

