92

 C            5.453061            5.204956            2.221067
 C            4.632580            5.498331            1.197289
 C            4.042968            4.323091            0.547189
 C            3.184931            4.280894           -0.513043
 C            2.729147            3.005646           -1.014532
 C            1.863741            2.926498           -2.114982
 C            1.430633            1.688665           -2.615434
 C            1.873989            0.476739           -1.981544
 C            2.733281            0.556757           -0.876003
 C            3.174343            1.793122           -0.384021
 C            4.077054            1.866532            0.743057
 C            4.483486            3.086675            1.169091
 S            5.579069            3.461820            2.492976
 C            1.427921           -0.802296           -2.507075
 C            1.849026           -2.064238           -1.853073
 C            3.052567           -2.663339           -2.182902
 C            3.962645           -2.095594           -3.168539
 C            5.131026           -2.705719           -3.480734
 C            5.510551           -3.948329           -2.840976
 C            4.706435           -4.519084           -1.912492
 C            3.439184           -3.906821           -1.536521
 C            2.614553           -4.482700           -0.597493
 C            1.365048           -3.882457           -0.239896
 C            0.517366           -4.474605            0.708462
 C           -0.718084           -3.898081            1.041502
 C           -1.592536           -4.512821            1.993352
 C           -2.809973           -3.953525            2.308122
 C           -3.708113           -4.580009            3.268682
 C           -4.907323           -4.026443            3.568974
 C           -5.324556           -2.788626            2.943861
 C           -4.527639           -2.165904            2.042600
 C           -3.229494           -2.714499            1.674324
 C           -2.399732           -2.101183            0.751068
 C           -2.812079           -0.844643            0.081355
 C           -3.409076           -0.855432           -1.142116
 S           -3.827095           -2.250967           -2.123073
 C           -4.486814           -1.248888           -3.421823
 C           -4.405435            0.063433           -3.139531
 C           -3.797715            0.356337           -1.837504
 C           -3.578304            1.572340           -1.258851
 C           -2.966534            1.643542            0.046077
 C           -2.577752            0.437053            0.724547
 C           -1.989329            0.524708            1.994684
 C           -1.784907            1.763037            2.619162
 C           -1.197602            1.843887            3.937951
 C           -1.038648            3.065101            4.502613
 S           -0.373704            3.448289            6.085250
 C           -0.608447            5.186977            5.861414
 C           -1.150791            5.473427            4.665081
 C           -1.424306            4.295745            3.834593
 C           -1.971272            4.246947            2.585400
 C           -2.173267            2.969933            1.942031
 C           -2.751788            2.883634            0.667714
 C           -1.119010           -2.669309            0.410872
 C           -0.256758           -2.068619           -0.520510
 C            0.970912           -2.651896           -0.871683
 C            0.616104           -0.805421           -3.599873
 S           -0.043637           -2.195870           -4.445946
 C           -0.907525           -1.185427           -5.611622
 C           -0.712453            0.126056           -5.386960
 C            0.159884            0.411521           -4.243274
 C            0.554251            1.625037           -3.760011
 H            6.008684            5.874903            2.856961
 H            4.396121            6.494343            0.844499
 H            2.832195            5.188743           -0.997621
 H            1.522912            3.844369           -2.594000
 H            3.069520           -0.363405           -0.390228
 H            4.404215            0.940418            1.213890
 H            3.666169           -1.160772           -3.648150
 H            5.814589           -2.284445           -4.216180
 H            6.456652           -4.400476           -3.134193
 H            4.977085           -5.452229           -1.420234
 H            2.894618           -5.415888           -0.109338
 H            0.820655           -5.403560            1.190344
 H           -1.271088           -5.443480            2.460496
 H           -3.377732           -5.509461            3.730585
 H           -5.589110           -4.489352            4.280617
 H           -6.294928           -2.381214            3.223238
 H           -4.835229           -1.234500            1.563262
 H           -4.886429           -1.727458           -4.301074
 H           -4.741781            0.869350           -3.778847
 H           -3.856262            2.498473           -1.757695
 H           -1.687696           -0.391137            2.510446
 H           -0.902934            0.922171            4.437959
 H           -0.317529            5.859977            6.651549
 H           -1.385295            6.465682            4.300660
 H           -2.264718            5.150671            2.055733
 H           -3.044380            3.797394            0.150498
 H           -0.553312           -1.125115           -0.990877
 H           -1.497815           -1.659104           -6.379065
 H           -1.136229            0.936169           -5.966158
 H            0.225099            2.554849           -4.219304

