92

 C           -3.734803            1.302892            5.479390
 C           -3.506478            2.318135            4.627623
 C           -3.222004            1.892177            3.253301
 C           -2.949799            2.663534            2.161133
 C           -2.678155            2.036809            0.888586
 C           -2.375040            2.811917           -0.240029
 C           -2.081630            2.217419           -1.475651
 C           -2.105417            0.785580           -1.596203
 C           -1.794765            0.181348           -2.872476
 C           -1.477144            0.984723           -3.916233
 S           -1.053875            0.511534           -5.556168
 C           -0.820937            2.185876           -6.073251
 C           -1.053004            3.059983           -5.077928
 C           -1.437820            2.431803           -3.809757
 C           -1.740131            3.028865           -2.620580
 C           -2.414717            0.002205           -0.464840
 C           -2.395180           -1.479966           -0.570005
 C           -3.539656           -2.193105           -0.878968
 C           -4.818267           -1.543923           -1.133165
 C           -5.924093           -2.264876           -1.437079
 C           -5.865648           -3.709902           -1.516239
 C           -4.703580           -4.366987           -1.286756
 C           -3.482593           -3.644008           -0.956947
 C           -2.298173           -4.304763           -0.721640
 C           -1.099083           -3.588930           -0.405836
 C            0.113642           -4.254785           -0.168977
 C            1.289259           -3.545563            0.123870
 C            2.530128           -4.217857            0.364038
 C            3.681361           -3.514540            0.638383
 C            4.946904           -4.193526            0.881975
 C            6.077349           -3.494350            1.143320
 C            6.055649           -2.046866            1.188018
 C            4.905024           -1.365761            0.970287
 C            3.657833           -2.061482            0.685665
 C            2.469783           -1.389738            0.458874
 C            2.406366            0.094817            0.478109
 C            2.140814            0.767587            1.688612
 C            1.958626            0.048279            2.929640
 C            1.687866            0.748721            4.057357
 S            1.420006            0.125573            5.679922
 C            1.157251            1.739752            6.351749
 C            1.266107            2.700484            5.417113
 C            1.572742            2.195596            4.074685
 C            1.746985            2.899766            2.919007
 C            2.034720            2.200872            1.688261
 C            2.198031            2.905934            0.487219
 C            2.456619            2.240621           -0.719823
 C            2.571334            0.808257           -0.727909
 C            2.839515            0.130656           -1.976627
 C            2.961696            0.867169           -3.107176
 S            3.281529            0.297523           -4.739773
 C            3.230033            1.930904           -5.414096
 C            2.993347            2.860403           -4.471431
 C            2.833707            2.312919           -3.120167
 C            2.593742            2.978955           -1.953540
 C            1.252181           -2.109636            0.180669
 C            0.034389           -1.448588           -0.040990
 C           -1.142645           -2.153781           -0.333913
 C           -2.701656            0.604209            0.778193
 C           -3.003567           -0.187305            1.949996
 C           -3.248190            0.446886            3.121970
 S           -3.627235           -0.271367            4.681783
 H           -3.960766            1.341586            6.532603
 H           -3.516756            3.369541            4.884768
 H           -2.924625            3.749213            2.223337
 H           -2.358493            3.898179           -0.152786
 H           -1.819254           -0.906591           -2.959650
 H           -0.525373            2.382920           -7.090797
 H           -0.974596            4.136649           -5.154808
 H           -1.725041            4.110445           -2.506737
 H           -4.850631           -0.454250           -1.070230
 H           -6.882255           -1.784494           -1.629273
 H           -6.783181           -4.241519           -1.764695
 H           -4.642444           -5.453120           -1.341318
 H           -2.248369           -5.392077           -0.773649
 H            0.143826           -5.342704           -0.215634
 H            2.540481           -5.306716            0.322768
 H            4.945786           -5.282108            0.844666
 H            7.028180           -3.993178            1.326019
 H            6.990851           -1.531476            1.401531
 H            4.876658           -0.274612            1.001685
 H            2.040007           -1.040364            2.923662
 H            0.938900            1.840259            7.402485
 H            1.145407            3.762299            5.589201
 H            1.669689            3.984521            2.896447
 H            2.114834            3.992636            0.490576
 H            2.932786           -0.957068           -1.976335
 H            3.381991            2.064743           -6.472632
 H            2.916319            3.926070           -4.643772
 H            2.495710            4.061838           -1.926406
 H            0.002554           -0.354579            0.013567
 H           -3.020843           -1.275220            1.860632

