86

 C           -0.118845            4.314176            3.178286
 C           -0.434693            4.516104            1.879352
 C           -1.076108            3.472298            1.084053
 C           -1.398072            3.670001           -0.229436
 C           -2.048017            2.645930           -1.014785
 C           -2.378002            2.869783           -2.339564
 C           -3.036656            1.863426           -3.095735
 C           -3.456613            1.907812           -4.422428
 S           -4.208598            0.447242           -4.836281
 C           -4.010965           -0.284256           -3.322285
 C           -3.356285            0.589718           -2.457802
 C           -2.994775            0.378348           -1.099902
 C           -2.356483            1.371904           -0.379663
 C           -1.977670            1.189411            1.014499
 C           -2.263896           -0.128934            1.637904
 C           -3.447396           -0.347829            2.322417
 C           -4.460718            0.686462            2.479874
 C           -5.609450            0.449674            3.158020
 C           -5.862819           -0.846827            3.750882
 C           -4.958336           -1.848133            3.631984
 C           -3.709832           -1.652116            2.907330
 C           -2.794621           -2.670423            2.766505
 C           -1.569012           -2.472410            2.054099
 C           -0.644335           -3.514415            1.885744
 C            0.557558           -3.317095            1.188217
 C            1.486973           -4.386974            0.988820
 C            2.658648           -4.192633            0.293281
 C            3.601192           -5.281677            0.074916
 C            4.754091           -5.082790           -0.607869
 C            5.079027           -3.776319           -1.140701
 C            4.239288           -2.728511           -0.960359
 C            2.986079           -2.878526           -0.233498
 C            2.114967           -1.820798           -0.030059
 C            2.468999           -0.453534           -0.493888
 C            3.245683            0.364531            0.293650
 C            3.748349           -0.050714            1.600922
 C            4.526510            0.763100            2.349748
 C            4.883100            2.089140            1.878812
 C            4.439770            2.536708            0.682556
 C            3.600360            1.703780           -0.174823
 C            3.156591            2.147573           -1.388816
 C            2.339869            1.320895           -2.246710
 C            1.909607            1.786508           -3.476986
 C            1.116779            0.962640           -4.318354
 C            0.604613            1.248256           -5.581950
 S           -0.271182           -0.080245           -6.158991
 C           -0.016474           -1.060078           -4.803595
 C            0.756993           -0.377994           -3.866177
 C            1.205947           -0.832213           -2.597390
 C            1.983384           -0.016590           -1.793816
 C            0.863347           -2.014949            0.658564
 C           -0.067991           -0.977279            0.823614
 C           -1.284929           -1.178002            1.494794
 C           -1.369761            2.192888            1.730042
 C           -0.992949            2.038495            3.132912
 C           -0.404481            3.043407            3.819980
 H            0.357407            5.086177            3.780304
 H           -0.223566            5.460947            1.380574
 H           -1.172657            4.614358           -0.724709
 H           -2.141238            3.814635           -2.824441
 H           -3.334173            2.727474           -5.106571
 H           -4.351959           -1.277570           -3.090630
 H           -3.234248           -0.584579           -0.645599
 H           -4.258961            1.660006            2.027870
 H           -6.370393            1.218950            3.276964
 H           -6.799141           -0.983069            4.290058
 H           -5.132244           -2.829139            4.071424
 H           -2.986965           -3.652730            3.196361
 H           -0.865308           -4.496744            2.301011
 H            1.241626           -5.365419            1.400150
 H            3.340210           -6.257426            0.481737
 H            5.465554           -5.889936           -0.775813
 H            6.014374           -3.669629           -1.687253
 H            4.473691           -1.739084           -1.359222
 H            3.470726           -1.047090            1.950736
 H            4.906200            0.454406            3.322359
 H            5.512961            2.699958            2.523298
 H            4.692997            3.530186            0.315232
 H            3.410502            3.145287           -1.746625
 H            2.169629            2.785695           -3.819966
 H            0.728259            2.163426           -6.131179
 H           -0.409618           -2.056371           -4.704694
 H            0.921663           -1.835573           -2.275819
 H            0.158725            0.013621            0.412725
 H           -1.206495            1.077426            3.604869
 H           -0.125216            2.933459            4.866634

