116

 C           -3.436934            9.927141           -3.592754
 C           -2.977586            9.158710           -2.577765
 C           -3.120871            7.707286           -2.605570
 C           -2.661530            6.911583           -1.587114
 C           -2.810396            5.479437           -1.627636
 C           -2.345289            4.663298           -0.600714
 C           -2.500912            3.255636           -0.652805
 C           -2.028324            2.413497            0.386340
 C           -2.189070            1.033802            0.324606
 C           -1.710959            0.166727            1.371920
 C           -1.863776           -1.193347            1.297147
 C           -1.378484           -2.083642            2.346132
 C           -1.511432           -3.425490            2.247164
 C           -2.152502           -4.021605            1.082385
 C           -2.239013           -5.501604            1.028106
 C           -3.304496           -6.167533            1.607798
 C           -4.386214           -5.466839            2.286954
 C           -5.423608           -6.140655            2.839020
 C           -5.486189           -7.586071            2.770889
 C           -4.505567           -8.290361            2.156807
 C           -3.366051           -7.618413            1.546606
 C           -2.364727           -8.326767            0.922728
 C           -1.249407           -7.661140            0.320726
 C           -0.222480           -8.380053           -0.309712
 C            0.872859           -7.725775           -0.894807
 C            1.927321           -8.459548           -1.525820
 C            3.005880           -7.816535           -2.089255
 C            4.089292           -8.559763           -2.718412
 C            5.152020           -7.920499           -3.263302
 C            5.234344           -6.474837           -3.237655
 C            4.251832           -5.736395           -2.667728
 C            3.086437           -6.365838           -2.061335
 C            2.075236           -5.634157           -1.462581
 C            2.132140           -4.152496           -1.430586
 C            1.762589           -3.432552           -2.642494
 C            1.767343           -2.080710           -2.667376
 C            2.131155           -1.300894           -1.489112
 C            2.109472            0.069662           -1.489831
 C            2.455898            0.825773           -0.312584
 C            2.423812            2.215794           -0.298875
 C            2.760411            2.947325            0.869130
 C            2.734617            4.364083            0.895698
 C            3.064410            5.070586            2.048658
 C            3.047183            6.510361            2.089559
 C            3.372395            7.197144            3.231538
 C            3.360844            8.654799            3.287189
 C            3.684734            9.314536            4.423672
 C            4.054505            8.588110            5.624443
 C            4.083271            7.235279            5.632562
 C            3.745166            6.467102            4.439642
 C            3.771223            5.096287            4.430015
 C            3.437425            4.348857            3.245379
 C            3.467699            2.958312            3.228816
 C            3.138209            2.231429            2.058562
 C            3.171608            0.814469            2.033316
 C            2.841097            0.107547            0.883292
 C            2.862283           -1.332049            0.851076
 C            2.516519           -2.024003           -0.280451
 C            2.503346           -3.479674           -0.312041
 C            0.942907           -6.289689           -0.856918
 C           -0.090820           -5.574970           -0.230525
 C           -1.182486           -6.225191            0.366016
 C           -2.641105           -3.242161            0.085210
 C           -2.522000           -1.791397            0.139040
 C           -2.997322           -0.991208           -0.867355
 C           -2.849392            0.440783           -0.818388
 C           -3.316003            1.257044           -1.842125
 C           -3.155246            2.664728           -1.789722
 C           -3.622612            3.502803           -2.831891
 C           -3.463065            4.883461           -2.772550
 C           -3.933611            5.743626           -3.827291
 C           -3.776588            7.104231           -3.762076
 C           -4.249600            7.985898           -4.823476
 C           -4.087922            9.326984           -4.742587
 H           -3.335297           11.011202           -3.581263
 H           -2.488024            9.595645           -1.708179
 H           -2.171322            7.346587           -0.716444
 H           -1.851927            5.104539            0.265543
 H           -1.527992            2.866027            1.243343
 H           -1.215040            0.628399            2.226385
 H           -0.901472           -1.620770            3.210243
 H           -1.148987           -4.101261            3.021475
 H           -4.328912           -4.377472            2.333268
 H           -6.235485           -5.621563            3.346271
 H           -6.343730           -8.078106            3.227318
 H           -4.535407           -9.377540            2.097006
 H           -2.402203           -9.414437            0.875019
 H           -0.275203           -9.467631           -0.344036
 H            1.857354           -9.546504           -1.546803
 H            4.009890           -9.646059           -2.729215
 H            5.969533           -8.466574           -3.731536
 H            6.108815           -6.008750           -3.689280
 H            4.305899           -4.646218           -2.642412
 H            1.484422           -4.025684           -3.513586
 H            1.494512           -1.527201           -3.566095
 H            1.820569            0.624301           -2.382924
 H            2.132701            2.762797           -1.196161
 H            2.451948            4.900274           -0.010333
 H            2.768594            7.040701            1.179283
 H            3.082825            9.186966            2.378259
 H            3.679686           10.402192            4.475347
 H            4.305850            9.171303            6.509110
 H            4.359458            6.675222            6.525258
 H            4.048007            4.535960            5.322806
 H            3.750246            2.408821            4.126410
 H            3.463816            0.279505            2.936294
 H            3.157013           -1.857240            1.759231
 H            2.790715           -4.006304            0.598479
 H           -0.044752           -4.481027           -0.204879
 H           -3.127593           -3.675866           -0.788779
 H           -3.495731           -1.421450           -1.735626
 H           -3.815069            0.817175           -2.704880
 H           -4.115100            3.048000           -3.690919
 H           -4.421604            5.277708           -4.683007
 H           -4.736749            7.520145           -5.679299
 H           -4.437743            9.994020           -5.529010

