116

 C           -2.828036            8.916285            0.813703
 C           -2.664188            8.796194           -0.623244
 C           -2.599788            7.579875           -1.212808
 C           -2.693052            6.354263           -0.427187
 C           -2.630086            5.113531           -1.007320
 C           -2.721961            3.910452           -0.219957
 C           -2.655363            2.648083           -0.800430
 C           -2.744174            1.471432           -0.014087
 C           -2.673210            0.179857           -0.594907
 C           -2.766294           -0.972273            0.179990
 C           -2.933834           -0.845600            1.611035
 C           -3.002024            0.416412            2.192281
 C           -2.910242            1.592919            1.409095
 C           -2.977205            2.883323            1.992405
 C           -2.885754            4.030908            1.212636
 C           -2.948509            5.347979            1.793484
 C           -2.857408            6.475184            1.018542
 C           -2.919442            7.814453            1.593852
 C           -3.028498           -2.037785            2.410855
 C           -2.970070           -3.284004            1.844360
 C           -3.063160           -4.492734            2.655732
 C           -3.010678           -5.720602            2.090328
 C           -2.862806           -5.866013            0.654831
 C           -2.767989           -4.778985           -0.145569
 C           -2.810668           -3.426798            0.401356
 C           -2.706693           -2.303331           -0.391872
 C           -2.532511           -2.432467           -1.861833
 C           -3.627366           -2.376332           -2.707394
 C           -4.984034           -2.188574           -2.212010
 C           -6.042022           -2.146463           -3.056846
 C           -5.851377           -2.283705           -4.485710
 C           -4.611399           -2.456533           -5.003061
 C           -3.438121           -2.514333           -4.141561
 C           -2.175987           -2.700831           -4.658123
 C           -1.028801           -2.771241           -3.804946
 C            0.258051           -2.979386           -4.324983
 C            1.377802           -3.073207           -3.483962
 C            2.689635           -3.300339           -4.009526
 C            3.781306           -3.411511           -3.178365
 C            5.117599           -3.651721           -3.706076
 C            6.184139           -3.776082           -2.880054
 C            6.022617           -3.667359           -1.445135
 C            4.802115           -3.440108           -0.903066
 C            3.617482           -3.301357           -1.738621
 C            2.358914           -3.079742           -1.206307
 C            2.160513           -3.002694            0.264241
 C            1.813104           -4.130476            0.978524
 C            1.648304           -5.436771            0.349578
 C            1.299110           -6.527274            1.070803
 C            1.074180           -6.430840            2.500361
 C            1.216550           -5.247873            3.141221
 C            1.595849           -4.039104            2.418001
 C            1.744957           -2.838849            3.062181
 C            2.117301           -1.646507            2.348413
 C            2.270623           -0.432141            3.009676
 C            2.639813            0.743637            2.311989
 C            2.791629            1.987072            2.976107
 C            3.154946            3.134566            2.280214
 C            3.305112            4.405818            2.941700
 C            3.664228            5.533054            2.249090
 C            3.818130            6.826622            2.906088
 C            4.174141            7.928769            2.206413
 C            4.413162            7.855195            0.776890
 C            4.285030            6.682648            0.113753
 C            3.904065            5.459071            0.810683
 C            3.767734            4.262851            0.154786
 C            3.388689            3.061532            0.854054
 C            3.241201            1.845861            0.194512
 C            2.864213            0.670961            0.893424
 C            2.700760           -0.571025            0.229421
 C            2.333726           -1.721942            0.920381
 C            1.205799           -2.948486           -2.061379
 C           -0.079665           -2.716240           -1.547441
 C           -1.203979           -2.634597           -2.383710
 H           -2.873413            9.919826            1.233487
 H           -2.595186            9.716272           -1.200952
 H           -2.475558            7.474328           -2.289769
 H           -2.506619            5.006780           -2.084698
 H           -2.530642            2.549355           -1.878918
 H           -2.542723            0.101218           -1.676985
 H           -3.126501            0.511531            3.270294
 H           -3.099524            2.965859            3.071693
 H           -3.068858            5.420880            2.873795
 H           -3.041282            7.889035            2.673586
 H           -3.146659           -1.918924            3.487477
 H           -3.173717           -4.362347            3.731284
 H           -3.076552           -6.628741            2.686736
 H           -2.830291           -6.876122            0.250171
 H           -2.656285           -4.880071           -1.227037
 H           -5.115885           -2.083235           -1.132834
 H           -7.057991           -2.008765           -2.690500
 H           -6.735039           -2.242955           -5.120858
 H           -4.450268           -2.559781           -6.075103
 H           -2.025885           -2.804525           -5.732118
 H            0.389598           -3.075293           -5.401969
 H            2.803380           -3.387975           -5.089409
 H            5.221997           -3.728593           -4.787344
 H            7.186314           -3.959607           -3.264658
 H            6.910630           -3.773109           -0.824161
 H            4.668783           -3.352705            0.177498
 H            1.818756           -5.501106           -0.727100
 H            1.176734           -7.503429            0.604766
 H            0.789665           -7.338099            3.030107
 H            1.051601           -5.154658            4.213666
 H            1.582007           -2.757789            4.136428
 H            2.103373           -0.374521            4.084531
 H            2.614546            2.033652            4.049905
 H            3.120577            4.444359            4.014665
 H            3.634039            6.867079            3.978749
 H            4.291408            8.898464            2.687444
 H            4.695999            8.773684            0.265581
 H            4.459617            6.612427           -0.959116
 H            3.941718            4.191764           -0.918586
 H            3.412993            1.783803           -0.880253
 H            2.868756           -0.612255           -0.849540
 H           -0.209254           -2.600283           -0.465156

