92

 C            3.676466            7.231977            2.173350
 C            4.673598            6.933246            1.170746
 C            4.815004            5.671617            0.690186
 C            3.969504            4.592164            1.168870
 C            4.097790            3.296950            0.691309
 C            3.257533            2.255019            1.166360
 C            3.370728            0.927222            0.674062
 C            2.536265           -0.078536            1.135840
 C            2.620562           -1.431677            0.621695
 C            1.782578           -2.403415            1.075738
 C            1.839200           -3.782515            0.532385
 C            2.636434           -4.743631            1.128123
 C            3.439208           -4.466339            2.311787
 C            4.218346           -5.421708            2.873158
 C            4.276099           -6.753949            2.308034
 C            3.548555           -7.069423            1.209849
 C            2.692192           -6.082586            0.565788
 C            1.952818           -6.392557           -0.552715
 C            1.116340           -5.417074           -1.183477
 C            0.364479           -5.729575           -2.326252
 C           -0.456706           -4.772857           -2.942493
 C           -1.220567           -5.089170           -4.110859
 C           -2.025304           -4.149261           -4.713405
 C           -2.807477           -4.465648           -5.900801
 C           -3.598135           -3.534523           -6.486316
 C           -3.683137           -2.193794           -5.945203
 C           -2.978380           -1.848592           -4.841011
 C           -2.115453           -2.807064           -4.163542
 C           -1.393289           -2.480736           -3.029062
 C           -1.492735           -1.124505           -2.436140
 C           -2.461007           -0.821872           -1.528579
 C           -2.541768            0.501772           -0.941919
 C           -3.516074            0.825488           -0.010701
 C           -3.571665            2.121210            0.569357
 C           -4.559693            2.462233            1.531114
 C           -4.598760            3.726999            2.097799
 C           -5.598406            4.092379            3.086020
 C           -5.619932            5.336534            3.628608
 C           -4.646687            6.329237            3.233463
 C           -3.692440            6.035097            2.313832
 C           -3.624260            4.718867            1.704273
 C           -2.656806            4.398022            0.764116
 C           -2.605363            3.105020            0.178731
 C           -1.617172            2.763630           -0.784171
 C           -1.571701            1.495924           -1.341885
 C           -0.566449            1.125229           -2.323079
 C           -0.525071           -0.125066           -2.846641
 C           -0.536403           -3.447312           -2.390016
 C            0.220763           -3.137929           -1.248759
 C            1.049686           -4.089693           -0.633708
 C            0.797597           -2.112045            2.099833
 C            0.687489           -0.859950            2.608923
 C            1.543881            0.217711            2.144177
 C            1.426149            1.508663            2.633949
 C            2.267115            2.551471            2.159000
 C            2.146679            3.881414            2.642793
 C            2.970281            4.891388            2.169006
 C            2.861346            6.257009            2.650652
 H            3.604804            8.258704            2.528590
 H            5.301767            7.750207            0.818792
 H            5.562012            5.430530           -0.065109
 H            4.849875            3.060935           -0.060726
 H            4.125679            0.710179           -0.080950
 H            3.367606           -1.640721           -0.144144
 H            3.387862           -3.458755            2.729009
 H            4.820063           -5.219460            3.757981
 H            4.921221           -7.483345            2.795311
 H            3.579580           -8.066050            0.771564
 H            1.990686           -7.392359           -0.983385
 H            0.419324           -6.734466           -2.743321
 H           -1.149696           -6.098911           -4.513234
 H           -2.730917           -5.478414           -6.294186
 H           -4.188875           -3.761439           -7.372323
 H           -4.329090           -1.480843           -6.455268
 H           -3.034081           -0.840708           -4.424962
 H           -3.194731           -1.564422           -1.214692
 H           -4.254202            0.083304            0.291611
 H           -5.291725            1.708575            1.819193
 H           -6.325427            3.333619            3.372860
 H           -6.364793            5.621424            4.370135
 H           -4.707953            7.313047            3.695913
 H           -2.953054            6.772850            2.004692
 H           -1.917256            5.139490            0.461865
 H           -0.886433            3.518588           -1.075055
 H            0.154673            1.887613           -2.618375
 H            0.225539           -0.417381           -3.580708
 H            0.163048           -2.128476           -0.827842
 H            0.158050           -2.928374            2.435144
 H           -0.049209           -0.623028            3.376687
 H            0.676846            1.743409            3.390121
 H            1.389456            4.098054            3.396235
 H            2.105404            6.466336            3.406478

