104

 C           -1.258385           -4.700128            4.668349
 C           -1.124018           -3.430086            5.352958
 C           -1.331254           -2.264414            4.694239
 C           -1.691922           -2.253093            3.283392
 C           -1.893028           -1.078509            2.593522
 C           -2.247036           -1.076404            1.204940
 C           -2.406513           -2.339954            0.535546
 C           -2.190297           -3.551271            1.269799
 C           -1.837464           -3.527372            2.600152
 C           -1.600233           -4.748045            3.358176
 C           -2.766347           -2.367082           -0.819896
 C           -2.973115           -1.181234           -1.539693
 C           -3.342034           -1.209744           -2.924007
 C           -3.541554           -0.048217           -3.635002
 C           -3.908329           -0.059456           -5.044336
 C           -4.096801            1.096525           -5.725347
 C           -3.941371            2.377743           -5.066431
 C           -3.603513            2.445117           -3.756029
 C           -3.383255            1.236372           -2.974008
 C           -3.030801            1.283966           -1.643667
 C           -2.811141            0.089162           -0.883266
 C           -2.443624            0.119499            0.479764
 C           -2.256963            1.425768            1.163925
 C           -3.339147            2.092815            1.713725
 C           -4.694362            1.563267            1.649037
 C           -5.739001            2.231834            2.194071
 C           -5.535746            3.500912            2.860906
 C           -4.296798            4.041525            2.952365
 C           -3.137081            3.365388            2.385925
 C           -1.873425            3.903512            2.478408
 C           -0.737740            3.232900            1.921468
 C            0.553400            3.774609            2.021955
 C            1.666860            3.114443            1.479272
 C            2.985611            3.660531            1.592217
 C            4.076810            3.006800            1.066401
 C            5.422559            3.552783            1.185021
 C            6.490646            2.899845            0.667026
 C            6.320235            1.637946           -0.022102
 C            5.089915            1.088690           -0.162516
 C            3.903084            1.741381            0.373210
 C            2.636550            1.196204            0.243050
 C            2.441443           -0.090277           -0.475476
 C            2.413536           -1.298555            0.254754
 C            2.576998           -1.335163            1.678060
 C            2.535970           -2.520802            2.377024
 C            2.695444           -2.566832            3.823889
 C            2.640807           -3.742193            4.495587
 C            2.425029           -4.988563            3.788824
 C            2.277032           -5.004434            2.442176
 C            2.325606           -3.771860            1.668068
 C            2.177506           -3.763370            0.299648
 C            2.215589           -2.539977           -0.445363
 C            2.061154           -2.534352           -1.839306
 C            2.093205           -1.336307           -2.568006
 C            1.932868           -1.331261           -3.991837
 C            1.960488           -0.157559           -4.710348
 C            1.790146           -0.133716           -6.156460
 C            1.819663            1.033883           -6.843117
 C            2.024978            2.292472           -6.154939
 C            2.190297            2.326771           -4.810562
 C            2.163359            1.104546           -4.019080
 C            2.321004            1.119467           -2.651093
 C            2.288444           -0.087815           -1.879551
 C            1.483169            1.860506            0.798309
 C            0.189742            1.322807            0.700197
 C           -0.926334            1.975371            1.248811
 H           -1.074385           -5.606032            5.243222
 H           -0.852184           -3.449488            6.406656
 H           -1.234540           -1.301244            5.194420
 H           -1.783468           -0.116909            3.099950
 H           -2.308312           -4.498173            0.744663
 H           -1.704215           -5.694456            2.830142
 H           -2.884479           -3.326240           -1.323183
 H           -3.458403           -2.180334           -3.404592
 H           -4.021088           -1.029745           -5.525535
 H           -4.367236            1.099949           -6.780027
 H           -4.103867            3.275071           -5.660935
 H           -3.483436            3.400780           -3.246352
 H           -2.910668            2.245638           -1.139671
 H           -4.836932            0.605354            1.144178
 H           -6.753171            1.838734            2.147876
 H           -6.408665            3.998147            3.281538
 H           -4.127356            4.995154            3.450455
 H           -1.711756            4.856051            2.981565
 H            0.694280            4.726204            2.533338
 H            3.105139            4.611471            2.109947
 H            5.533926            4.502808            1.705827
 H            7.500424            3.299020            0.751782
 H            7.209519            1.151494           -0.419339
 H            4.950668            0.137587           -0.681006
 H            2.734789           -0.390856            2.203854
 H            2.857250           -1.621239            4.340518
 H            2.755104           -3.787015            5.577023
 H            2.386210           -5.903315            4.377698
 H            2.114398           -5.932762            1.897182
 H            2.023118           -4.692757           -0.246856
 H            1.910812           -3.476746           -2.365154
 H            1.783790           -2.285666           -4.495285
 H            1.635915           -1.087251           -6.659192
 H            1.690046            1.063807           -7.923767
 H            2.039763            3.200461           -6.755243
 H            2.346243            3.265030           -4.278743
 H            2.474612            2.064328           -2.124824
 H            0.047940            0.365930            0.184845

