104

 C          -11.146105           -1.757128            1.913658
 C          -10.125251           -1.053316            2.459704
 C           -8.919309           -0.764029            1.695615
 C           -7.871335           -0.049886            2.232068
 C           -6.689263            0.221752            1.469117
 C           -5.615435            0.947764            2.007507
 C           -4.461518            1.204412            1.250812
 C           -3.355436            1.937400            1.789710
 C           -2.223836            2.178038            1.042611
 C           -1.090202            2.905528            1.595512
 C            0.020977            3.133339            0.855481
 C            0.106758            2.667865           -0.510587
 C           -0.921875            1.985078           -1.081024
 C           -0.812811            1.523652           -2.488179
 C           -1.270625            2.316335           -3.526443
 C           -1.919240            3.600792           -3.299784
 C           -2.352722            4.362064           -4.333126
 C           -2.181132            3.918920           -5.701133
 C           -1.587218            2.731956           -5.971299
 C           -1.105062            1.870660           -4.899850
 C           -0.499752            0.663667           -5.166464
 C           -0.029982           -0.179796           -4.109607
 C            0.589121           -1.410560           -4.376791
 C            1.043261           -2.238912           -3.338999
 C            1.683450           -3.490292           -3.609594
 C            2.129359           -4.298498           -2.588696
 C            2.784310           -5.571456           -2.858568
 C            3.220642           -6.361702           -1.848741
 C            3.046105           -5.957191           -0.469096
 C            2.439632           -4.785069           -0.163141
 C            1.946029           -3.894300           -1.204646
 C            1.315275           -2.696055           -0.918043
 C            1.063637           -2.291285            0.488331
 C            2.066683           -1.491286            1.192434
 C            3.240034           -1.082263            0.599344
 C            4.201692           -0.293764            1.311670
 C            5.396504            0.132168            0.710601
 C            6.329457            0.906430            1.418638
 C            7.554495            1.343691            0.817912
 C            8.460976            2.107421            1.518850
 C            9.711493            2.557572            0.923304
 C           10.587027            3.315888            1.626156
 C           10.302053            3.699337            2.994268
 C            9.156456            3.303106            3.599391
 C            8.178439            2.485861            2.894291
 C            7.009476            2.071465            3.492239
 C            6.054009            1.273397            2.782927
 C            4.860199            0.845813            3.384326
 C            3.928867            0.070080            2.676792
 C            2.704155           -0.367525            3.276216
 C            1.790507           -1.119064            2.571391
 C            0.536998           -1.549843            3.173870
 C           -0.360221           -2.281227            2.470976
 C           -0.092166           -2.661727            1.102188
 C            0.861382           -1.825656           -1.973367
 C            0.249027           -0.590042           -1.710540
 C           -0.195414            0.247154           -2.746068
 C           -2.142073            1.694632           -0.327022
 C           -3.194649            0.986870           -0.862444
 C           -4.377679            0.716601           -0.100231
 C           -5.450806           -0.010614           -0.638258
 C           -6.605668           -0.266754            0.117784
 C           -7.709260           -1.004066           -0.421577
 C           -8.837048           -1.252550            0.328378
 C           -9.967814           -1.998468           -0.206221
 C          -11.066416           -2.238843            0.549289
 H          -12.051085           -1.980836            2.476636
 H          -10.171844           -0.682191            3.482818
 H           -7.920669            0.325059            3.253832
 H           -5.677965            1.317250            3.030358
 H           -3.429724            2.300787            2.814159
 H           -1.170299            3.252142            2.624869
 H            0.880414            3.667078            1.260669
 H            1.021693            2.880766           -1.064470
 H           -2.045085            3.924754           -2.264542
 H           -2.840246            5.321471           -4.168291
 H           -2.545237            4.570001           -6.494630
 H           -1.448934            2.382861           -6.993604
 H           -0.364824            0.325488           -6.193292
 H            0.720138           -1.728985           -5.410215
 H            1.809316           -3.789526           -4.649598
 H            2.906023           -5.859416           -3.901839
 H            3.711416           -7.315036           -2.039543
 H            3.418450           -6.625147            0.305830
 H            2.304595           -4.469678            0.873543
 H            3.461993           -1.351282           -0.436122
 H            5.602528           -0.141900           -0.324382
 H            7.752701            1.054894           -0.214185
 H            9.912690            2.260040           -0.105199
 H           11.524121            3.658369            1.190128
 H           11.038701            4.312456            3.511482
 H            8.929427            3.581279            4.627870
 H            6.786244            2.344637            4.523064
 H            4.652124            1.121795            4.417398
 H            2.509245           -0.087042            4.310849
 H            0.349531           -1.256460            4.205882
 H           -1.306223           -2.601478            2.906835
 H           -0.846991           -3.250871            0.580502
 H            0.115035           -0.270687           -0.671031
 H           -3.148005            0.613109           -1.888104
 H           -5.385529           -0.383813           -1.660616
 H           -7.633866           -1.365444           -1.447081
 H           -9.894105           -2.352479           -1.233880
 H          -11.916815           -2.796008            0.159677

