104

 C           -1.886584            8.204932           -4.178003
 C           -2.277401            7.497608           -3.090716
 C           -2.143511            6.047934           -3.049173
 C           -2.536258            5.312396           -1.953397
 C           -2.396591            3.886678           -1.926004
 C           -2.793695            3.128581           -0.813164
 C           -2.643348            1.733160           -0.793596
 C           -3.040024            0.948343            0.338303
 C           -2.879397           -0.419027            0.350524
 C           -3.273529           -1.233249            1.492443
 C           -3.113601           -2.577799            1.486953
 C           -2.539910           -3.246153            0.330018
 C           -2.402038           -4.722936            0.367904
 C           -3.412406           -5.531816           -0.123227
 C           -4.651671           -4.990672           -0.665413
 C           -5.622894           -5.801931           -1.148906
 C           -5.456023           -7.240504           -1.141844
 C           -4.325953           -7.800039           -0.647208
 C           -3.250173           -6.976120           -0.111309
 C           -2.098327           -7.536129            0.392188
 C           -1.042860           -6.721115            0.913426
 C            0.133578           -7.290363            1.424309
 C            1.169944           -6.491430            1.932069
 C            2.373929           -7.072506            2.443787
 C            3.389742           -6.288063            2.940991
 C            4.620678           -6.873173            3.456093
 C            5.614852           -6.093792            3.945311
 C            5.476679           -4.652398            3.967389
 C            4.353320           -4.058073            3.498062
 C            3.250260           -4.841635            2.958120
 C            2.095997           -4.256634            2.465733
 C            1.944787           -2.780746            2.469747
 C            1.422018           -2.151292            3.672252
 C            1.278818           -0.806539            3.735993
 C            1.639435            0.046906            2.611789
 C            1.504801            1.416097            2.663187
 C            1.858956            2.239980            1.545056
 C            1.717105            3.635854            1.583048
 C            2.061235            4.431358            0.478669
 C            1.912008            5.856154            0.502421
 C            2.250584            6.628194           -0.586364
 C            2.102440            8.077062           -0.577834
 C            2.440753            8.820547           -1.658745
 C            2.959570            8.191410           -2.856461
 C            3.117214            6.847259           -2.918986
 C            2.771559            5.996677           -1.788156
 C            2.923740            4.628819           -1.831652
 C            2.575341            3.805993           -0.711400
 C            2.719833            2.410292           -0.748385
 C            2.369094            1.614523            0.353466
 C            2.504399            0.188730            0.323444
 C            2.154680           -0.584476            1.407871
 C            2.290010           -2.032036            1.389849
 C            1.023482           -5.060372            1.935783
 C           -0.154915           -4.495380            1.421590
 C           -1.191858           -5.290292            0.907457
 C           -2.149743           -2.533772           -0.759285
 C           -2.301301           -1.088609           -0.803064
 C           -1.917939           -0.354400           -1.903146
 C           -2.073951            1.069061           -1.936442
 C           -1.684363            1.825852           -3.052669
 C           -1.832815            3.221426           -3.071119
 C           -1.433967            4.006017           -4.201992
 C           -1.576648            5.375572           -4.207250
 C           -1.174131            6.188278           -5.347149
 C           -1.322452            7.534963           -5.332354
 H           -1.982471            9.288567           -4.218288
 H           -2.701069            7.986529           -2.214502
 H           -2.960303            5.803865           -1.078347
 H           -3.222518            3.632978            0.052082
 H           -3.472680            1.464765            1.194727
 H           -3.701210           -0.715846            2.351057
 H           -3.404424           -3.197036            2.335355
 H           -4.768415           -3.905089           -0.666582
 H           -6.550313           -5.400659           -1.554370
 H           -6.265498           -7.846933           -1.545723
 H           -4.183325           -8.879830           -0.635042
 H           -1.965859           -8.617407            0.402551
 H            0.245625           -8.374102            1.425502
 H            2.468200           -8.157718            2.428225
 H            4.708609           -7.958532            3.429754
 H            6.539110           -6.520922            4.331972
 H            6.303121           -4.069439            4.370868
 H            4.240854           -2.972094            3.508897
 H            1.154572           -2.800189            4.506157
 H            0.888331           -0.318610            4.628812
 H            1.122492            1.903663            3.559396
 H            1.330149            4.110316            2.483986
 H            1.518790            6.316381            1.408058
 H            1.709259            8.534875            0.328658
 H            2.333545            9.903914           -1.661984
 H            3.213480            8.835908           -3.696296
 H            3.503314            6.360434           -3.813634
 H            3.310732            4.141986           -2.726299
 H            3.107380            1.935498           -1.649291
 H            2.890115           -0.273105           -0.585100
 H            2.678411           -2.493126            0.481468
 H           -0.267361           -3.406091            1.419968
 H           -1.714227           -3.023803           -1.630346
 H           -1.484262           -0.845807           -2.773566
 H           -1.257268            1.320954           -3.918405
 H           -1.010194            3.489164           -5.062225
 H           -0.750574            5.671682           -6.207312
 H           -1.024880            8.151576           -6.178813

