104

 C            0.698290           -7.186376           -3.466650
 C            0.399691           -7.449881           -2.073443
 C            0.614755           -6.502795           -1.128704
 C            1.147914           -5.195086           -1.484077
 C            1.365644           -4.216934           -0.539551
 C            1.885338           -2.933218           -0.906903
 C            2.103946           -1.926952            0.046998
 C            2.614168           -0.671002           -0.318122
 C            2.914243           -0.414404           -1.701881
 C            2.696674           -1.419910           -2.657195
 C            2.187190           -2.674305           -2.289405
 C            1.955842           -3.706746           -3.255262
 C            1.449944           -4.931702           -2.881864
 C            1.199822           -5.988411           -3.852380
 C            3.430485            0.866930           -2.077905
 C            3.644482            1.853532           -1.142516
 C            4.165834            3.160027           -1.521406
 C            4.374926            4.125758           -0.594815
 C            4.085723            3.879522            0.802540
 C            3.598767            2.682004            1.207662
 C            3.349933            1.605324            0.258528
 C            2.849078            0.373956            0.646936
 C            2.538597            0.105505            2.075037
 C            3.470389           -0.506267            2.897059
 C            4.781921           -0.919545            2.417109
 C            5.682332           -1.504190            3.243620
 C            5.362993           -1.738968            4.636331
 C            4.156028           -1.380850            5.136498
 C            3.150765           -0.746778            4.294104
 C            1.925701           -0.371860            4.797434
 C            0.947536            0.265648            3.969785
 C           -0.296212            0.664272            4.483840
 C           -1.242201            1.317034            3.678913
 C           -2.504123            1.740133            4.205844
 C           -3.421140            2.398328            3.418478
 C           -4.703445            2.838040            3.952304
 C           -5.594564            3.499613            3.175703
 C           -5.294594            3.782874            1.787578
 C           -4.117574            3.393464            1.241325
 C           -3.117608            2.681782            2.025614
 C           -1.903000            2.283708            1.493123
 C           -1.549770            2.602821            0.085453
 C           -0.823555            3.745665           -0.207086
 C           -0.389696            4.680980            0.822270
 C            0.322895            5.790399            0.511059
 C            0.678711            6.079708           -0.862395
 C            0.299551            5.247107           -1.861242
 C           -0.471326            4.042225           -1.585110
 C           -0.864655            3.194424           -2.595227
 C           -1.621234            2.010865           -2.319531
 C           -2.026401            1.150461           -3.352245
 C           -2.766844           -0.010155           -3.082865
 C           -3.184340           -0.896676           -4.127906
 C           -3.907851           -2.034679           -3.850305
 C           -4.333426           -2.950068           -4.900078
 C           -5.042531           -4.066739           -4.607606
 C           -5.399669           -4.379285           -3.238493
 C           -5.030439           -3.561525           -2.223252
 C           -4.264316           -2.349156           -2.476089
 C           -3.874253           -1.508930           -1.457136
 C           -3.116794           -0.321939           -1.722719
 C           -2.710281            0.538997           -0.691299
 C           -1.970887            1.702407           -0.958146
 C           -0.936391            1.578077            2.297835
 C            0.297444            1.152492            1.780853
 C            1.252816            0.511379            2.585853
 H            0.504179           -7.981530           -4.184492
 H           -0.001140           -8.429376           -1.819218
 H            0.395351           -6.685475           -0.077473
 H            1.143179           -4.399985            0.511790
 H            1.869470           -2.128373            1.094895
 H            2.924794           -1.221664           -3.703784
 H            2.187062           -3.496026           -4.298593
 H            1.429234           -5.774742           -4.895359
 H            3.649386            1.043909           -3.130411
 H            4.376981            3.326902           -2.576481
 H            4.761355            5.106291           -0.867578
 H            4.271708            4.686936            1.508750
 H            3.376006            2.487927            2.258616
 H            5.011215           -0.739365            1.364568
 H            6.664138           -1.813266            2.888847
 H            6.122986           -2.209890            5.258345
 H            3.898124           -1.551601            6.180734
 H            1.677862           -0.548251            5.843493
 H           -0.529386            0.467824            5.529579
 H           -2.719969            1.531213            5.253013
 H           -4.913241            2.614697            4.997406
 H           -6.554376            3.835738            3.565646
 H           -6.044696            4.314778            1.204674
 H           -3.881447            3.599826            0.195134
 H           -0.660509            4.454000            1.855210
 H            0.647487            6.492166            1.277502
 H            1.256489            6.981559           -1.057474
 H            0.558257            5.447643           -2.899758
 H           -0.604925            3.408505           -3.631439
 H           -1.759489            1.387498           -4.381433
 H           -2.910687           -0.648588           -5.152562
 H           -4.057176           -2.701095           -5.923682
 H           -5.362645           -4.759186           -5.384326
 H           -5.969836           -5.289131           -3.060263
 H           -5.290671           -3.782999           -1.188904
 H           -4.133358           -1.732757           -0.422183
 H           -2.975751            0.295666            0.340162
 H            0.523086            1.330097            0.722777

