104

 C            2.066986            0.239421           -7.925833
 C            2.100722           -1.168566           -7.584794
 C            2.138274           -1.566300           -6.290269
 C            2.152865           -0.594012           -5.205854
 C            2.196394           -0.977856           -3.884535
 C            2.222931           -0.008259           -2.829466
 C            2.272090           -0.389804           -1.480108
 C            2.298551            0.569922           -0.455454
 C            2.344908            0.191543            0.925192
 C            2.366915            1.135230            1.927903
 C            2.342565            2.547898            1.584805
 C            2.299637            2.933536            0.262948
 C            2.276468            1.967837           -0.794172
 C            2.230867            2.349766           -2.144625
 C            2.200947            1.390766           -3.168448
 C            2.149643            1.767210           -4.550361
 C            2.125668            0.819223           -5.548216
 C            2.076863            1.186185           -6.956950
 C            2.363097            3.526604            2.662497
 C            2.409562            3.137199            3.959114
 C            2.435384            1.734808            4.309837
 C            2.411995            0.775634            3.346018
 C            2.423642           -0.661816            3.719466
 C            3.619034           -1.332604            3.911895
 C            4.913612           -0.687479            3.738558
 C            6.069959           -1.363478            3.941922
 C            6.052153           -2.755937            4.339137
 C            4.877783           -3.409267            4.507925
 C            3.604188           -2.733372            4.299921
 C            2.407429           -3.392454            4.465322
 C            1.158318           -2.724017            4.261070
 C           -0.063839           -3.394663            4.421355
 C           -1.287508           -2.737401            4.220795
 C           -2.535019           -3.420653            4.379687
 C           -3.732985           -2.774147            4.176546
 C           -5.004998           -3.465871            4.335942
 C           -6.180440           -2.824093            4.133316
 C           -6.200666           -1.428570            3.747265
 C           -5.045800           -0.738165            3.588378
 C           -3.750571           -1.370619            3.799035
 C           -2.556923           -0.684966            3.652700
 C           -2.550038            0.759389            3.306670
 C           -2.623685            1.696653            4.289689
 C           -2.606486            3.106694            3.971175
 C           -2.520233            3.525366            2.685797
 C           -2.445376            2.571268            1.588790
 C           -2.362985            2.987663            0.278220
 C           -2.282600            2.046889           -0.798206
 C           -2.197858            2.460805           -2.137291
 C           -2.107731            1.526619           -3.180201
 C           -2.017799            1.935931           -4.550745
 C           -1.930591            1.012058           -5.567471
 C           -1.843012            1.412257           -6.965254
 C           -1.767523            0.488462           -7.953146
 C           -1.767476           -0.927314           -7.644142
 C           -1.840836           -1.355281           -6.360875
 C           -1.927837           -0.408853           -5.257163
 C           -2.010936           -0.823918           -3.947234
 C           -2.105505            0.120071           -2.872971
 C           -2.197199           -0.293499           -1.535288
 C           -2.286234            0.641437           -0.491312
 C           -2.378167            0.230818            0.877855
 C           -2.456786            1.150902            1.899586
 C           -1.292000           -1.348268            3.847939
 C           -0.066597           -0.682314            3.685710
 C            1.159942           -1.336130            3.883360
 H            2.032606            0.502963           -8.981337
 H            2.094363           -1.886404           -8.402773
 H            2.160422           -2.620590           -6.018357
 H            2.211631           -2.032903           -3.613546
 H            2.288181           -1.448708           -1.222216
 H            2.359629           -0.874050            1.165316
 H            2.278470            3.989133           -0.005248
 H            2.216453            3.408189           -2.401074
 H            2.127941            2.828852           -4.792820
 H            2.047150            2.247843           -7.197138
 H            2.337025            4.579191            2.384310
 H            2.425378            3.860651            4.773110
 H            2.469340            1.474705            5.367727
 H            4.916525            0.361128            3.434279
 H            7.039696           -0.885815            3.812230
 H            7.009374           -3.251414            4.494194
 H            4.845572           -4.456908            4.803868
 H            2.387178           -4.441407            4.758873
 H           -0.062855           -4.445686            4.708148
 H           -2.512953           -4.470753            4.668973
 H           -4.970891           -4.515720            4.623760
 H           -7.136674           -3.331329            4.251996
 H           -7.170877           -0.960555            3.589241
 H           -5.050426            0.312952            3.292904
 H           -2.693354            1.412312            5.339582
 H           -2.662412            3.811433            4.799680
 H           -2.500998            4.584157            2.431567
 H           -2.353142            4.049285            0.034314
 H           -2.200491            3.524832           -2.369530
 H           -2.019312            3.002930           -4.768999
 H           -1.840301            2.479389           -7.181398
 H           -1.703977            0.776729           -9.000868
 H           -1.705490           -1.625789           -8.476392
 H           -1.837292           -2.415657           -6.112618
 H           -2.004883           -1.884987           -3.700127
 H           -2.196634           -1.358216           -1.301698
 H           -2.381453           -0.840014            1.093955
 H           -0.067670            0.373510            3.392458

