104

 C           -8.397867           -5.193586           -2.110216
 C           -9.157484           -4.118758           -2.670186
 C           -8.617552           -2.864820           -2.769019
 C           -7.280035           -2.609244           -2.311849
 C           -6.694368           -1.319031           -2.402618
 C           -5.402632           -1.077229           -1.960109
 C           -4.645734           -2.163656           -1.397365
 C           -5.204412           -3.428648           -1.302750
 C           -6.525656           -3.678499           -1.754989
 C           -7.120918           -4.982379           -1.665487
 C           -3.288761           -1.918998           -0.929613
 C           -2.714018           -0.697200           -1.009860
 C           -1.325964           -0.503902           -0.516915
 C           -1.111175           -0.139670            0.829073
 C           -2.200526            0.113014            1.725497
 C           -1.986446            0.448020            3.043348
 C           -3.086648            0.693088            3.965360
 C           -2.852011            1.007815            5.262065
 C           -1.496884            1.119162            5.763734
 C           -0.436781            0.911317            4.946085
 C           -0.628248            0.560429            3.545844
 C            0.432894            0.331864            2.699384
 C            0.233726           -0.027440            1.326330
 C            1.317625           -0.282397            0.460079
 C            2.704575           -0.239521            0.990842
 C            3.260681           -1.359643            1.505678
 C            4.617555           -1.372233            2.033943
 C            5.158006           -2.537351            2.555318
 C            6.479865           -2.562057            3.069982
 C            7.056718           -3.759429            3.614210
 C            8.334982           -3.753000            4.103139
 C            9.114545           -2.553949            4.078521
 C            8.592608           -1.397101            3.565914
 C            7.254131           -1.369401            3.045549
 C            6.686922           -0.183563            2.509025
 C            5.394313           -0.161416            2.007692
 C            4.793554            1.061268            1.450820
 C            5.497658            2.255014            1.404532
 C            4.921860            3.437097            0.870385
 C            5.648612            4.674926            0.820761
 C            5.067339            5.799576            0.300571
 C            3.728194            5.759379           -0.200642
 C            3.010023            4.594768           -0.167239
 C            3.591523            3.397241            0.371535
 C            2.874097            2.174139            0.419490
 C            3.446313            1.025462            0.942319
 C            1.103326           -0.608090           -0.895757
 C            2.192825           -0.843010           -1.796893
 C            1.978859           -1.180676           -3.113977
 C            3.078839           -1.435738           -4.033590
 C            2.843861           -1.780201           -5.322514
 C            1.488692           -1.893659           -5.823435
 C            0.428803           -1.657406           -5.013167
 C            0.620630           -1.294149           -3.616051
 C           -0.440588           -1.062922           -2.770435
 C           -0.241576           -0.720611           -1.392901
 C           -3.436086            0.447631           -1.575986
 C           -2.846547            1.698920           -1.660136
 C           -3.545672            2.806356           -2.206191
 C           -2.946602            4.108288           -2.299514
 C           -3.647512            5.157010           -2.830802
 C           -4.985953            4.970969           -3.299904
 C           -5.583813            3.742106           -3.224503
 C           -4.875370            2.621145           -2.672902
 C           -5.468904            1.335233           -2.582670
 C           -4.782822            0.254636           -2.049465
 H           -8.858735           -6.178083           -2.047269
 H          -10.170293           -4.323194           -3.013580
 H           -9.187849           -2.040245           -3.193787
 H           -7.288345           -0.510458           -2.833377
 H           -4.630775           -4.251888           -0.876781
 H           -6.532830           -5.792709           -1.237413
 H           -2.747437           -2.767929           -0.507515
 H           -3.218079            0.034715            1.335967
 H           -4.099164            0.610921            3.571043
 H           -3.666532            1.187482            5.962138
 H           -1.366283            1.376167            6.813829
 H            0.588226            0.996624            5.306081
 H            1.458163            0.423164            3.065280
 H            2.704437           -2.298368            1.540330
 H            4.569335           -3.454511            2.575831
 H            6.453744           -4.666004            3.627299
 H            8.781987           -4.655055            4.518051
 H           10.127842           -2.585799            4.475766
 H            9.178159           -0.479339            3.542327
 H            7.296043            0.722601            2.498847
 H            6.520179            2.303851            1.784271
 H            6.666946            4.694430            1.205205
 H            5.609418            6.743127            0.257850
 H            3.298018            6.673270           -0.606869
 H            1.989580            4.551026           -0.545624
 H            1.852353            2.153218            0.033140
 H            3.210644           -0.746026           -1.412111
 H            4.091565           -1.340503           -3.642571
 H            3.657842           -1.979211           -6.017972
 H            1.357742           -2.171817           -6.868044
 H           -0.596060           -1.732810           -5.375536
 H           -1.465591           -1.136291           -3.140885
 H           -1.825201            1.851168           -1.303229
 H           -1.927015            4.237300           -1.938625
 H           -3.203821            6.148351           -2.906747
 H           -5.514006            5.827492           -3.716315
 H           -6.601899            3.589161           -3.578422
 H           -6.490800            1.210784           -2.946455

