104

 C           -1.123140            5.937705            1.360245
 C           -0.247203            5.092171            0.610356
 C           -0.526589            3.760360            0.458786
 C           -1.711684            3.195439            1.041209
 C           -2.033901            1.819051            0.881463
 C           -3.211823            1.263429            1.354474
 C           -4.086086            2.140687            2.101983
 C           -3.769541            3.473484            2.308474
 C           -2.586495            4.040128            1.771251
 C           -2.259638            5.428405            1.929260
 C           -5.342995            1.638316            2.643149
 C           -5.752217            0.386809            2.379409
 C           -4.947429           -0.522352            1.568186
 C           -5.480808           -1.768027            1.294713
 C           -4.761408           -2.720867            0.532911
 C           -5.321545           -4.006340            0.226892
 C           -4.606717           -4.917018           -0.502970
 C           -3.297722           -4.588286           -0.968976
 C           -2.743972           -3.367831           -0.686658
 C           -3.459335           -2.386773            0.084104
 C           -2.898026           -1.099414            0.407166
 C           -1.477005           -0.960806           -0.010238
 C           -0.474870           -1.507876            0.824539
 C           -0.785178           -2.079833            2.101087
 C            0.180016           -2.681863            2.876874
 C           -0.132932           -3.287704            4.163321
 C            0.828607           -3.895642            4.899304
 C            2.198883           -3.946418            4.430586
 C            2.546940           -3.386807            3.246588
 C            1.553599           -2.730540            2.408171
 C            1.878877           -2.163813            1.196291
 C            0.889537           -1.535326            0.372327
 C            1.225635           -0.941070           -0.865405
 C            2.614538           -1.029078           -1.390469
 C            3.616197           -0.080639           -1.174238
 C            4.849313           -0.246361           -1.915644
 C            5.065469           -1.340408           -2.732683
 C            4.078010           -2.343843           -2.888136
 C            4.307173           -3.492252           -3.718004
 C            3.333713           -4.442125           -3.869796
 C            2.082016           -4.295136           -3.198632
 C            1.842409           -3.206878           -2.402368
 C            2.838424           -2.185873           -2.219117
 C            5.902155            0.763544           -1.851588
 C            5.791791            1.841385           -1.057641
 C            4.631837            2.013827           -0.191532
 C            4.624948            3.079856            0.693325
 C            3.558988            3.269310            1.608432
 C            3.544766            4.344368            2.558963
 C            2.509617            4.465397            3.446971
 C            1.430565            3.527259            3.434142
 C            1.412947            2.499781            2.529414
 C            2.483424            2.345028            1.584336
 C            2.492804            1.279887            0.641687
 C            3.538721            1.068122           -0.241991
 C            0.229610           -0.360328           -1.682087
 C            0.546165            0.248999           -2.940168
 C           -0.433237            0.757310           -3.762836
 C           -0.119870            1.367066           -5.047576
 C           -1.101391            1.846297           -5.849015
 C           -2.490853            1.773013           -5.443498
 C           -2.837106            1.224247           -4.254032
 C           -1.825572            0.686663           -3.354652
 C           -2.150962            0.121826           -2.142419
 C           -1.146841           -0.407833           -1.267453
 C           -3.635372           -0.132399            1.093655
 H           -0.865932            6.990509            1.465005
 H            0.646684            5.529270            0.167725
 H            0.141089            3.107358           -0.105664
 H           -1.293410            1.225482            0.348985
 H           -4.441426            4.113879            2.879649
 H           -2.935511            6.059317            2.502884
 H           -5.936011            2.318517            3.255258
 H           -6.698351            0.004006            2.764071
 H           -6.471032           -2.035474            1.665078
 H           -6.322581           -4.235280            0.588408
 H           -5.016482           -5.897166           -0.740990
 H           -2.750990           -5.327291           -1.552817
 H           -1.744498           -3.126804           -1.053488
 H           -1.820013           -2.035662            2.449368
 H           -1.166381           -3.233842            4.504595
 H            0.604904           -4.358926            5.858970
 H            2.931188           -4.445663            5.063418
 H            3.574305           -3.409486            2.883785
 H            2.910344           -2.184196            0.836665
 H            6.004845           -1.443277           -3.276866
 H            5.268609           -3.585928           -4.220049
 H            3.491660           -5.317861           -4.497074
 H            1.324339           -5.065681           -3.332995
 H            0.882788           -3.107740           -1.891600
 H            6.777182            0.609458           -2.484177
 H            6.566160            2.608201           -1.021287
 H            5.456226            3.784517            0.708499
 H            4.372676            5.050433            2.557451
 H            2.487675            5.272737            4.177289
 H            0.622977            3.651702            4.154141
 H            0.589264            1.784637            2.508157
 H            1.623339            0.626068            0.667602
 H            1.595799            0.299307           -3.239776
 H            0.930014            1.420297           -5.334265
 H           -0.879561            2.300295           -6.813554
 H           -3.238073            2.175302           -6.125889
 H           -3.876610            1.167885           -3.931727
 H           -3.193335            0.069888           -1.819207

