96

 C            9.357841           -4.824368            0.233599
 C           10.055302           -3.604542            0.153670
 C            9.359985           -2.398669            0.090490
 C            7.930598           -2.405163            0.107360
 C            7.237453           -3.639082            0.187774
 C            7.972273           -4.847140            0.250596
 C            5.793690           -3.622524            0.203070
 C            5.105949           -2.450554            0.142085
 C            5.786396           -1.178788            0.060100
 C            7.191124           -1.166712            0.043360
 C            7.910284            0.083571           -0.037701
 C            7.214185            1.270154           -0.097951
 C            5.786074            1.284596           -0.082008
 C            5.070976            2.523547           -0.144449
 C            3.700589            2.545144           -0.130094
 C            2.967573            1.320601           -0.052306
 C            1.484786            1.379022           -0.039550
 C            0.776191            1.355542           -1.259093
 C            1.450815            1.265863           -2.520837
 C            0.758531            1.256719           -3.710228
 C            1.435685            1.173389           -4.996907
 C            0.732879            1.161347           -6.155071
 C           -0.714469            1.233948           -6.143582
 C           -1.394376            1.315659           -4.974559
 C           -0.692078            1.329982           -3.698733
 C           -1.361074            1.408576           -2.498562
 C           -0.660744            1.429125           -1.247799
 C           -1.343692            1.524911           -0.017316
 C           -2.824804            1.615671           -0.004096
 C           -3.434794            2.905632           -0.085728
 C           -4.800602            3.020111           -0.066941
 C           -5.632992            1.859503            0.034311
 C           -7.055405            1.986752            0.059442
 C           -7.863173            0.876067            0.159879
 C           -9.319197            0.984946            0.190345
 C          -10.109465           -0.104403            0.290181
 C           -9.546819           -1.448009            0.371932
 C           -8.125296           -1.596487            0.344200
 C           -7.555376           -2.892200            0.421636
 C           -8.403729           -4.020300            0.525730
 C           -9.780038           -3.860003            0.551889
 C          -10.355558           -2.577974            0.475355
 C           -6.117343           -3.019135            0.391666
 C           -5.319377           -1.921962            0.292847
 C           -5.872968           -0.589971            0.213832
 C           -7.269398           -0.438522            0.238740
 C           -5.031242            0.576452            0.111897
 C           -3.605508            0.485121            0.089583
 C           -0.634903            1.549986            1.202602
 C           -1.308840            1.655573            2.463255
 C           -0.615117            1.692372            3.651531
 C           -1.290904            1.805977            4.936520
 C           -0.587165            1.835293            6.093951
 C            0.859831            1.757159            6.082883
 C            1.538509            1.653609            4.914778
 C            0.835073            1.614807            3.640309
 C            1.502431            1.506389            2.441348
 C            0.801736            1.474874            1.191341
 C            3.633968            0.117033            0.008926
 C            5.061990            0.066432           -0.003878
 C            9.370116            0.047434           -0.053197
 C           10.050865           -1.116452            0.006829
 H            9.921267           -5.756063            0.282223
 H           11.143835           -3.612136            0.141688
 H            7.438865           -5.794180            0.312410
 H            5.273002           -4.577851            0.264926
 H            4.013413           -2.445081            0.153961
 H            7.742735            2.221051           -0.159023
 H            5.640542            3.450834           -0.203653
 H            3.148471            3.483660           -0.177085
 H            2.541345            1.204345           -2.519318
 H            2.524019            1.121615           -4.988662
 H            1.227853            1.097548           -7.122926
 H           -1.228573            1.220542           -7.103420
 H           -2.482135            1.373094           -4.949228
 H           -2.452043            1.457475           -2.479525
 H           -2.793970            3.783994           -0.161420
 H           -5.276915            3.998430           -0.127977
 H           -7.489011            2.984468           -0.001771
 H           -9.742049            1.988087            0.129071
 H          -11.196001           -0.018648            0.313171
 H           -7.965024           -5.014940            0.585161
 H          -10.431079           -4.730337            0.632328
 H          -11.439310           -2.477478            0.497788
 H           -5.692048           -4.020769            0.450680
 H           -4.231834           -2.024917            0.270651
 H           -3.139203           -0.500591            0.149986
 H           -2.399868            1.707649            2.462435
 H           -2.378811            1.866016            4.927825
 H           -1.081522            1.917963            7.060689
 H            1.374809            1.785074            7.041963
 H            2.626286            1.596243            4.889477
 H            2.592640            1.442074            2.423377
 H            3.073607           -0.818402            0.068242
 H            9.888494            1.004601           -0.115678
 H           11.140664           -1.139095           -0.005120

