96

 C           -3.130690           -4.549459            0.992873
 C           -2.047242           -3.660248            0.764186
 C           -2.275488           -2.337019            0.469589
 C           -3.595163           -1.790632            0.388345
 C           -4.668348           -2.698321            0.612495
 C           -4.414520           -4.074636            0.914001
 C           -6.021631           -2.254928            0.540324
 C           -6.314663           -0.943383            0.257240
 C           -7.704647           -0.500617            0.181501
 C           -8.027828            0.779142           -0.090079
 C           -6.990574            1.776881           -0.319037
 C           -5.618824            1.372237           -0.252053
 C           -4.614558            2.343222           -0.473527
 C           -4.968759            3.685741           -0.755834
 C           -6.300954            4.054841           -0.816479
 C           -7.314483            3.102191           -0.598445
 C           -3.245004            1.924100           -0.402737
 C           -2.890050            0.628060           -0.132972
 C           -1.416943            0.419564           -0.107140
 C           -0.731464            0.185115           -1.320269
 C           -1.431799           -0.041865           -2.548860
 C           -0.761049           -0.234120           -3.735777
 C           -1.464197           -0.446378           -4.992911
 C           -0.783034           -0.627998           -6.149982
 C            0.665909           -0.620675           -6.165035
 C            1.369637           -0.431246           -5.022715
 C            0.691144           -0.225656           -3.750919
 C            1.384093           -0.025322           -2.578018
 C            0.706197            0.192157           -1.335148
 C            1.413461            0.423500           -0.134139
 C            2.884800            0.641855           -0.175802
 C            3.228120            1.946646           -0.416705
 C            4.593029            2.385802           -0.444024
 C            4.934822            3.739678           -0.684240
 C            6.261790            4.131956           -0.683696
 C            7.282207            3.191198           -0.446723
 C            6.970769            1.854289           -0.211857
 C            5.604601            1.426004           -0.207757
 C            5.244211            0.045810            0.030555
 C            3.895789           -0.381523            0.039315
 C            3.613292           -1.787087            0.257606
 C            2.302085           -2.359045            0.252778
 C            2.087413           -3.700562            0.462802
 C            3.176575           -4.581263            0.697151
 C            4.452721           -4.079876            0.707106
 C            4.693047           -2.686217            0.484935
 C            6.039644           -2.217177            0.489265
 C            6.320310           -0.891857            0.263532
 C            7.704074           -0.423816            0.257782
 C            8.015212            0.868151            0.033840
 C            0.728353            0.591795            1.089291
 C            1.428778            0.785488            2.324169
 C            0.757957            0.993174            3.508043
 C            1.461126            1.211454            4.764441
 C            0.779695            1.420393            5.916633
 C           -0.669398            1.427560            5.929230
 C           -1.372968            1.225745            4.789187
 C           -0.694538            1.000335            3.520559
 C           -1.387331            0.797958            2.348453
 C           -0.709739            0.595831            1.102357
 C           -3.891750           -0.400887            0.098357
 C           -5.245499            0.004670            0.034529
 H           -2.925946           -5.592657            1.225042
 H           -1.028892           -4.043762            0.826135
 H           -1.407999           -1.703628            0.293934
 H           -5.263938           -4.736137            1.079889
 H           -6.817874           -2.979347            0.713752
 H           -8.472041           -1.255979            0.355002
 H           -9.064545            1.109964           -0.147250
 H           -4.182460            4.419977           -0.923721
 H           -6.577045            5.086345           -1.033503
 H           -8.356619            3.413226           -0.650484
 H           -2.475716            2.681856           -0.573704
 H           -2.523836           -0.062867           -2.523943
 H           -2.553595           -0.449832           -4.964579
 H           -1.297359           -0.783913           -7.096993
 H            1.161651           -0.772247           -7.122653
 H            2.459315           -0.423886           -5.017553
 H            2.476492           -0.033290           -2.574743
 H            2.452362            2.698201           -0.585568
 H            4.142963            4.464422           -0.866455
 H            6.528260            5.172718           -0.865745
 H            8.319948            3.520771           -0.448947
 H            1.431020           -1.731433            0.074306
 H            1.075705           -4.105744            0.449719
 H            2.982377           -5.639005            0.862990
 H            5.306278           -4.733754            0.881996
 H            6.840955           -2.933901            0.671282
 H            8.477051           -1.170777            0.442612
 H            9.047334            1.217739            0.028410
 H            2.520910            0.761981            2.307041
 H            2.550527            1.202823            4.738078
 H            1.293960            1.588237            6.861696
 H           -1.165239            1.600180            6.883216
 H           -2.462700            1.227891            4.782256
 H           -2.479727            0.784498            2.349092

