96

 C           -7.287953            3.372354            2.668376
 C           -5.868770            3.343284            2.777590
 C           -5.129813            2.500936            1.984140
 C           -5.763823            1.639214            1.035306
 C           -7.178589            1.671243            0.928721
 C           -7.926825            2.557564            1.767605
 C           -7.844182            0.824415           -0.009929
 C           -7.132049           -0.029433           -0.822047
 C           -7.796093           -0.900419           -1.787821
 C           -7.096610           -1.734722           -2.584820
 C           -5.640934           -1.808064           -2.520044
 C           -4.951427           -0.973390           -1.585323
 C           -3.536585           -1.032453           -1.506163
 C           -2.831435           -1.916236           -2.357032
 C           -3.513263           -2.717465           -3.258551
 C           -4.916511           -2.667556           -3.343475
 C           -2.863783           -0.175987           -0.547019
 C           -1.383518           -0.221385           -0.438365
 C           -0.601680            0.663279           -1.211164
 C           -1.195668            1.586965           -2.132268
 C           -0.430452            2.453901           -2.879005
 C           -1.025167            3.397991           -3.814800
 C           -0.251839            4.246074           -4.534860
 C            1.190482            4.232807           -4.395088
 C            1.795723            3.371263           -3.542308
 C            1.015408            2.439577           -2.739952
 C            1.607184            1.557949           -1.863971
 C            0.830432            0.647291           -1.075437
 C            1.433185           -0.254635           -0.173212
 C            2.907439           -0.241078            0.004092
 C            3.461874            0.527763            0.986910
 C            4.885817            0.570147            1.205100
 C            5.717656           -0.199941            0.376033
 C            7.149794           -0.180328            0.563565
 C            7.700701            0.595279            1.559041
 C            6.874753            1.384044            2.417626
 C            7.455047            2.184027            3.453332
 C            6.661296            2.938025            4.281041
 C            5.247249            2.932434            4.116252
 C            4.667879            2.174845            3.128658
 C            5.465721            1.377722            2.249444
 C            7.978516           -0.995765           -0.319971
 C            7.436643           -1.758163           -1.292560
 C            5.994745           -1.804499           -1.509856
 C            5.147018           -1.018012           -0.668167
 C            3.742656           -1.049052           -0.864881
 C            3.204884           -1.860515           -1.891737
 C            4.038854           -2.617858           -2.698383
 C            5.432936           -2.593205           -2.511783
 C            0.652808           -1.156132            0.581330
 C            1.248458           -2.094183            1.486850
 C            0.483942           -2.964345            2.230254
 C            1.080093           -3.916220            3.157306
 C            0.306647           -4.757893            3.884562
 C           -1.136490           -4.736179            3.754590
 C           -1.742359           -3.874662            2.902300
 C           -0.962519           -2.943596            2.098634
 C           -1.555207           -2.055498            1.229941
 C           -0.779400           -1.138004            0.448152
 C           -3.577116            0.667888            0.255006
 C           -5.014879            0.744717            0.187857
 C           -5.691358           -0.076536           -0.728887
 H           -7.851010            4.049083            3.309206
 H           -5.383899            3.998947            3.498935
 H           -4.041260            2.476628            2.066022
 H           -9.011722            2.570858            1.675014
 H           -8.931087            0.869903           -0.069091
 H           -8.884096           -0.846709           -1.836758
 H           -7.595184           -2.383625           -3.305276
 H           -1.742668           -1.960675           -2.296020
 H           -2.964001           -3.395473           -3.911228
 H           -5.430824           -3.307152           -4.059152
 H           -2.283559            1.588253           -2.232686
 H           -2.110655            3.393821           -3.910654
 H           -0.685100            4.957896           -5.235700
 H            1.762972            4.935892           -4.998047
 H            2.879196            3.346795           -3.428352
 H            2.694111            1.537112           -1.755402
 H            2.824561            1.133614            1.636833
 H            8.779190            0.620424            1.711037
 H            8.537684            2.180463            3.569743
 H            7.096060            3.548083            5.071312
 H            4.637779            3.537485            4.785393
 H            3.583624            2.168874            2.999680
 H            9.056362           -0.961932           -0.158526
 H            8.057965           -2.366617           -1.950188
 H            2.124237           -1.884054           -2.042422
 H            3.618088           -3.241061           -3.486979
 H            6.068460           -3.196925           -3.157955
 H            2.337315           -2.106093            1.575705
 H            2.166578           -3.922299            3.241232
 H            0.740431           -5.471644            4.583167
 H           -1.709044           -5.434373            4.363100
 H           -2.826023           -3.848803            2.790655
 H           -2.642051           -2.036246            1.120396
 H           -3.061779            1.310159            0.974371

