96

 C            5.596690           -5.456320           -1.797029
 C            4.150614           -5.552329           -1.914312
 C            3.344965           -4.524943           -1.563473
 C            3.919164           -3.281583           -1.055630
 N            3.127170           -2.274243           -0.715926
 C            3.715463           -1.101706           -0.238037
 C            5.157215           -1.004909           -0.122029
 N            5.973678           -2.081080           -0.483616
 C            5.391607           -3.184223           -0.936093
 C            6.195703           -4.336550           -1.332169
 C            5.759881            0.168735            0.351588
 C            4.950987            1.256979            0.710179
 N            5.560397            2.426245            1.174672
 C            4.781733            3.450574            1.501537
 C            5.362657            4.697737            1.989583
 C            4.563039            5.738650            2.315728
 C            3.116824            5.654917            2.192802
 C            2.511614            4.529939            1.750253
 C            3.309469            3.363499            1.382124
 N            2.712511            2.261251            0.950326
 C            3.509204            1.171265            0.597920
 C            2.892520           -0.012235            0.126732
 C            1.414419           -0.091331            0.021369
 C            0.670718           -0.644100            1.086008
 C            1.303228           -1.187223            2.252521
 C            0.571462           -1.721785            3.289054
 C            1.204943           -2.275648            4.477878
 C            0.463684           -2.797434            5.485043
 C           -0.982793           -2.819797            5.404571
 C           -1.622855           -2.317916            4.320909
 C           -0.878027           -1.741557            3.210037
 C           -1.507067           -1.221123            2.101652
 C           -0.766456           -0.655804            1.012093
 C           -1.408008           -0.106375           -0.118698
 C           -2.889769           -0.030322           -0.149107
 C           -3.551224            1.063487            0.459575
 N           -2.794453            2.052083            1.089727
 C           -3.432362            3.064568            1.660676
 C           -2.676962            4.113924            2.339702
 C           -3.324105            5.148826            2.921115
 C           -4.774092            5.249635            2.889181
 C           -5.535546            4.312087            2.280599
 C           -4.908342            3.164085            1.633066
 N           -5.649339            2.237324            1.037741
 C           -4.996345            1.157887            0.435981
 C           -5.764553            0.164809           -0.188936
 C           -5.117637           -0.924516           -0.788190
 N           -5.895813           -1.911817           -1.400345
 C           -5.274064           -2.941982           -1.959083
 C           -6.038489           -4.003767           -2.606629
 C           -5.400270           -5.054063           -3.170541
 C           -3.950101           -5.159192           -3.155019
 C           -3.180046           -4.211171           -2.575141
 C           -3.797461           -3.048686           -1.941822
 N           -3.041112           -2.122524           -1.369040
 C           -3.671566           -1.029170           -0.771643
 C           -0.663219            0.408574           -1.201356
 C           -1.296353            0.940843           -2.372160
 C           -0.564642            1.449112           -3.421864
 C           -1.199430            1.991931           -4.614877
 C           -0.458771            2.487921           -5.635431
 C            0.988470            2.489253           -5.566461
 C            1.629778            1.995090           -4.479846
 C            0.885422            1.451407           -3.352317
 C            1.514903            0.946585           -2.236710
 C            0.774182            0.414381           -1.130648
 H            6.180322           -6.327440           -2.099856
 H            3.741874           -6.488683           -2.296810
 H            2.255270           -4.567944           -1.638671
 H            7.279351           -4.240503           -1.233616
 H            6.849889            0.236224            0.438564
 H            6.451126            4.737422            2.071994
 H            4.978376            6.679070            2.682278
 H            2.539832            6.537798            2.471085
 H            1.427866            4.436098            1.643946
 H            2.392254           -1.173113            2.303789
 H            2.292912           -2.252788            4.523586
 H            0.925878           -3.213018            6.378737
 H           -1.528767           -3.252161            6.241158
 H           -2.709321           -2.328162            4.244715
 H           -2.595321           -1.233781            2.035337
 H           -1.589185            4.007478            2.348635
 H           -2.779419            5.942042            3.434978
 H           -5.224419            6.114903            3.378721
 H           -6.625986            4.365188            2.245043
 H           -6.857507            0.238618           -0.206129
 H           -7.125998           -3.900498           -2.606086
 H           -5.953856           -5.858914           -3.657223
 H           -3.508489           -6.035547           -3.631655
 H           -2.088455           -4.262511           -2.549731
 H           -2.385596            0.931774           -2.420005
 H           -2.287941            1.983097           -4.652170
 H           -0.921986            2.897349           -6.531371
 H            1.533942            2.898834           -6.414803
 H            2.716908            1.988425           -4.413490
 H            2.603705            0.944061           -2.178716

