96

 C          -14.049407           -2.823953           -1.022382
 C          -13.387938           -1.797111           -0.442189
 C          -11.930478           -1.731346           -0.505263
 N          -11.279900           -0.723470            0.062528
 C           -9.885342           -0.709110           -0.024977
 C           -9.171391            0.345758            0.565540
 C           -7.770663            0.359264            0.479546
 N           -7.061264            1.411698            1.065328
 C           -5.738265            1.400369            0.970151
 C           -4.947270            2.477852            1.560076
 C           -3.599870            2.471678            1.463349
 C           -2.893281            1.396193            0.773615
 C           -1.412776            1.469763            0.710430
 C           -0.645520            0.959093            1.778739
 C           -1.255840            0.378058            2.938164
 C           -0.502840           -0.132742            3.971331
 C           -1.113184           -0.738752            5.146496
 C           -0.350165           -1.236686            6.149343
 C            1.096156           -1.175348            6.080668
 C            1.715505           -0.621846            5.010329
 C            0.947003           -0.076488            3.900033
 C            1.553675            0.479687            2.796602
 C            0.790342            1.003707            1.702529
 C            1.408514            1.545975            0.555445
 C            2.889345            1.548771            0.462775
 C            3.595751            2.760653            0.867807
 C            4.944140            2.834010            0.828979
 C            5.736571            1.691724            0.379994
 N            7.061045            1.763777            0.355006
 C            7.771660            0.639904           -0.075530
 C            9.174225            0.686734           -0.107471
 C            9.889301           -0.442956           -0.535231
 N           11.285765           -0.396144           -0.566691
 C           11.937413           -1.478271           -0.973317
 C           13.396860           -1.483574           -1.026857
 C           14.059468           -2.587228           -1.440552
 C           13.352359           -3.792677           -1.841096
 C           12.002282           -3.858728           -1.817377
 C           11.217520           -2.706299           -1.383612
 N            9.892831           -2.772395           -1.362947
 C            9.185761           -1.644407           -0.939297
 C            7.783809           -1.691303           -0.909684
 C            7.069587           -0.561677           -0.481778
 N            5.674357           -0.613199           -0.450151
 C            5.019651            0.464404           -0.036204
 C            3.564494            0.456009            0.025678
 C            0.641323            2.063794           -0.508761
 C            1.251075            2.611221           -1.685064
 C            0.497675            3.101854           -2.727364
 C            1.107539            3.646904           -3.932438
 C            0.344309            4.121567           -4.946132
 C           -1.102121            4.103192           -4.856314
 C           -1.721311            3.608027           -3.757800
 C           -0.952461            3.078846           -2.639721
 C           -1.558862            2.559864           -1.518513
 C           -0.794893            2.030401           -0.427114
 C           -3.567153            0.364439            0.206113
 C           -5.021313            0.310064            0.269309
 N           -5.674639           -0.697651           -0.294962
 C           -7.068773           -0.705605           -0.209954
 C           -7.781509           -1.759184           -0.801913
 C           -9.182190           -1.771249           -0.717095
 N           -9.887786           -2.821354           -1.309085
 C          -11.211086           -2.814346           -1.215075
 C          -11.994270           -3.889137           -1.817706
 C          -13.342704           -3.885154           -1.720925
 H          -15.138103           -2.890321           -0.985357
 H          -13.897182           -0.988749            0.087807
 H           -9.701211            1.149938            1.087740
 H           -5.499179            3.271041            2.071436
 H           -2.991022            3.269240            1.896064
 H           -2.345766            0.340551            2.985545
 H           -2.201458           -0.778299            5.184260
 H           -0.794978           -1.695794            7.031410
 H            1.659931           -1.589148            6.915934
 H            2.801960           -0.569577            4.943767
 H            2.642823            0.524948            2.737329
 H            2.985933            3.602641            1.204214
 H            5.495603            3.729730            1.127110
 H            9.704179            1.595174            0.199188
 H           13.906379           -0.566769           -0.720899
 H           15.149595           -2.609828           -1.487692
 H           13.955925           -4.643322           -2.162174
 H           11.446188           -4.751610           -2.112858
 H            7.253382           -2.599809           -1.216306
 H            3.058049           -0.461849           -0.287641
 H            2.340998            2.626015           -1.743530
 H            2.195837            3.653925           -3.986234
 H            0.788672            4.528189           -5.853862
 H           -1.665970            4.499003           -5.700179
 H           -2.807781            3.586507           -3.676179
 H           -2.647982            2.539471           -1.446264
 H           -3.060330           -0.453882           -0.314139
 H           -7.251454           -2.563427           -1.324449
 H          -11.438486           -4.673820           -2.336583
 H          -13.945197           -4.679532           -2.164621

