96

 C          -11.669194            1.867423           -1.047800
 C          -10.807512            2.970029           -1.442717
 C           -9.460963            2.872800           -1.371950
 C           -8.837457            1.642997           -0.891320
 N           -7.516418            1.549676           -0.821460
 C           -6.967903            0.353480           -0.352069
 C           -5.573170            0.232742           -0.265441
 C           -5.019818           -0.965512            0.212657
 N           -3.632162           -1.076808            0.303044
 C           -3.122715           -2.210575            0.763452
 C           -3.993717           -3.336865            1.170502
 N           -5.316756           -3.253578            1.089337
 C           -5.874464           -2.066238            0.609319
 C           -7.270271           -1.945697            0.517710
 C           -7.825174           -0.747440            0.043102
 N           -9.215145           -0.625604           -0.041774
 C           -9.714822            0.519203           -0.488881
 C          -11.159975            0.699972           -0.594231
 C           -3.366618           -4.554946            1.671981
 C           -2.019999           -4.639052            1.763329
 C           -1.159998           -3.540054            1.367141
 C           -1.666455           -2.376994            0.885334
 C           -0.802199           -1.246887            0.466854
 C           -0.506769           -0.220606            1.389217
 C           -1.002387           -0.245912            2.734260
 C           -0.713467            0.759395            3.629268
 C           -1.231992            0.754631            4.990182
 C           -0.921047            1.747192            5.858529
 C           -0.057751            2.839285            5.455844
 C            0.443057            2.897924            4.198261
 C            0.130990            1.867027            3.218128
 C            0.609660            1.916788            1.928351
 C            0.301665            0.894149            0.972106
 C            0.761815            0.956145           -0.360265
 C            1.539349            2.136365           -0.810172
 C            0.920709            3.259840           -1.255887
 C            1.669044            4.418024           -1.704387
 C            3.020988            4.430940           -1.700397
 C            3.764077            3.263873           -1.237720
 N            5.091734            3.282092           -1.239273
 C            5.766948            2.145632           -0.788967
 C            7.170559            2.137639           -0.782133
 C            7.846536            0.995086           -0.328150
 N            9.244174            0.989241           -0.320472
 C            9.860501           -0.102177            0.114304
 C           11.319231           -0.159609            0.144784
 C           11.947778           -1.270904            0.589634
 C           11.203103           -2.433401            1.045726
 C            9.851253           -2.450356            1.044229
 C            9.101882           -1.286385            0.579689
 N            7.775641           -1.303275            0.581052
 C            7.104697           -0.164436            0.128080
 C            5.701598           -0.156916            0.120972
 C            5.025925            0.986826           -0.333241
 N            3.630130            0.990166           -0.340362
 C            3.007551            2.077089           -0.774269
 C            0.478713           -0.077337           -1.278392
 C            0.957632           -0.041253           -2.629174
 C            0.668522           -1.045610           -3.524926
 C            1.155858           -1.019885           -4.897052
 C            0.850375           -2.014874           -5.764333
 C            0.027344           -3.132567           -5.347995
 C           -0.447162           -3.208911           -4.081189
 C           -0.146604           -2.171343           -3.104265
 C           -0.611780           -2.229896           -1.809931
 C           -0.319157           -1.198393           -0.858181
 H          -12.746390            2.020157           -1.132528
 H          -11.291276            3.880719           -1.799186
 H           -8.789824            3.684860           -1.661689
 H           -4.922588            1.062475           -0.564954
 H           -7.917767           -2.777698            0.815134
 H          -11.785733           -0.142885           -0.291654
 H           -4.032032           -5.371395            1.961991
 H           -1.533458           -5.541811            2.138698
 H           -0.081237           -3.681379            1.468788
 H           -1.629782           -1.084626            3.038801
 H           -1.879322           -0.072898            5.277864
 H           -1.306453            1.756266            6.876913
 H            0.169804            3.603736            6.197229
 H            1.092807            3.712486            3.880449
 H            1.246023            2.744958            1.613290
 H           -0.170190            3.320584           -1.289633
 H            1.094331            5.280879           -2.047267
 H            3.606560            5.290691           -2.034269
 H            7.730358            3.013732           -1.127371
 H           11.855138            0.726200           -0.204226
 H           13.036936           -1.331171            0.620569
 H           11.779437           -3.293650            1.389825
 H            9.267057           -3.310217            1.380562
 H            5.138993           -1.032493            0.465079
 H            1.571227            0.806060           -2.938426
 H            1.773076           -0.172979           -5.194690
 H            1.209652           -2.006542           -6.792233
 H           -0.192444           -3.901351           -6.087179
 H           -1.066858           -4.042687           -3.753637
 H           -1.224162           -3.073096           -1.487749

