100

 C          -14.608590           -0.143185            1.363541
 C          -14.856720            0.025954           -0.056200
 C          -13.835806            0.126677           -0.938057
 C          -12.448920            0.067044           -0.477238
 N          -11.469615            0.169561           -1.373560
 C          -10.145461            0.113430           -0.938260
 C           -9.119945            0.223626           -1.895962
 C           -7.777214            0.173417           -1.502152
 C           -6.689373            0.282049           -2.431939
 C           -5.389042            0.228015           -1.989158
 C           -4.236100            0.332637           -2.868658
 C           -2.974803            0.277516           -2.379843
 C           -2.734918            0.110299           -0.952795
 C           -1.330436            0.063637           -0.475807
 C           -0.662868           -1.176762           -0.398878
 C           -1.297388           -2.401654           -0.788754
 C           -0.643414           -3.610345           -0.709383
 C           -1.280997           -4.860469           -1.098781
 C           -0.615950           -6.038019           -1.015470
 C            0.751192           -6.083907           -0.536671
 C            1.390491           -4.950827           -0.158083
 C            0.724594           -3.657178           -0.223255
 C            1.352399           -2.493216            0.158929
 C            0.690667           -1.223530            0.086487
 C            1.330862           -0.027822            0.475379
 C            2.733851           -0.074184            0.956708
 C            3.771137            0.001015            0.085054
 C            5.147798           -0.050300            0.564592
 N            6.134886            0.022670           -0.325537
 C            7.453835           -0.028020            0.122608
 C            8.482056            0.048424           -0.834164
 C            9.821847            0.001015           -0.433349
 C           10.907855            0.073710           -1.367259
 C           12.207436            0.023115           -0.923793
 C           13.355667            0.091106           -1.811973
 C           14.617078            0.036854           -1.321880
 C           14.859094           -0.090787            0.103247
 C           13.834183           -0.159311            0.983546
 C           12.449496           -0.105904            0.515819
 N           11.466083           -0.176347            1.410858
 C           10.144142           -0.125963            0.968938
 C            9.114332           -0.202327            1.925521
 C            7.773597           -0.156043            1.525383
 C            6.681754           -0.231533            2.453879
 C            5.383490           -0.182242            2.005103
 C            4.226919           -0.255363            2.883061
 C            2.967786           -0.204534            2.388661
 C            0.663744            1.212618            0.396966
 C            1.298853            2.438161            0.784768
 C            0.643564            3.646208            0.707878
 C            1.281111            4.896819            1.096470
 C            0.614031            6.073449            1.017470
 C           -0.755000            6.118359            0.544067
 C           -1.393940            4.985127            0.165708
 C           -0.726072            3.692226            0.226155
 C           -1.353449            2.528327           -0.156143
 C           -0.690306            1.259100           -0.086795
 C           -3.768842            0.002611           -0.080496
 C           -5.147324            0.056975           -0.553880
 N           -6.130883           -0.048415            0.337028
 C           -7.451495            0.006554           -0.104898
 C           -8.475830           -0.104277            0.852876
 C           -9.817139           -0.053124            0.458526
 C          -10.899210           -0.160030            1.393853
 C          -12.200638           -0.103670            0.957066
 C          -13.345066           -0.205025            1.847039
 H          -15.474553           -0.218019            2.020314
 H          -15.896245            0.068493           -0.383155
 H          -13.993331            0.254265           -2.010748
 H           -9.389516            0.348691           -2.947196
 H           -6.921556            0.408219           -3.490649
 H           -4.427602            0.457347           -3.934962
 H           -2.101992            0.355514           -3.029671
 H           -2.325976           -2.358214           -1.152715
 H           -2.309294           -4.809719           -1.455568
 H           -1.083086           -6.979224           -1.302095
 H            1.239624           -7.056530           -0.494284
 H            2.418184           -4.968871            0.203719
 H            2.380463           -2.520725            0.526102
 H            3.622583            0.100186           -0.993470
 H            8.216844            0.144709           -1.889698
 H           10.675180            0.169151           -2.429003
 H           13.159133            0.186719           -2.879639
 H           15.485680            0.086888           -1.977517
 H           15.897106           -0.129223            0.435517
 H           13.987011           -0.255586            2.060222
 H            9.379513           -0.298137            2.980976
 H            6.909620           -0.328970            3.516587
 H            4.414157           -0.353250            3.952946
 H            2.092072           -0.259182            3.036990
 H            2.328707            2.395420            1.145239
 H            2.310745            4.846886            1.449507
 H            1.081038            7.014878            1.303945
 H           -1.245196            7.090241            0.505670
 H           -2.423056            5.002261           -0.191989
 H           -2.382487            2.555001           -0.520575
 H           -3.615859           -0.125424            0.994401
 H           -8.205922           -0.229911            1.904165
 H          -10.661676           -0.286013            2.451357
 H          -13.143694           -0.331865            2.910563

