100

 C          -14.971149            0.281494            0.105702
 C          -13.982592            0.514411           -0.790565
 C          -12.585515            0.434342           -0.397246
 C          -11.541605            0.659747           -1.262443
 C          -10.186080            0.560374           -0.803610
 C           -9.087492            0.777056           -1.643621
 C           -7.778235            0.658578           -1.142494
 N           -6.713581            0.877147           -2.016783
 C           -5.469529            0.756548           -1.560016
 C           -4.356728            0.980674           -2.482950
 C           -3.078279            0.849281           -2.065026
 C           -2.773324            0.482224           -0.688437
 C           -1.347223            0.323526           -0.313487
 C           -0.750264           -0.952721           -0.398773
 C           -1.473776           -2.095571           -0.873033
 C           -0.891765           -3.341260           -0.941636
 C           -1.616188           -4.506486           -1.429627
 C           -1.026399           -5.725423           -1.475135
 C            0.343435           -5.901836           -1.036415
 C            1.065478           -4.849678           -0.580908
 C            0.486509           -3.514914           -0.517500
 C            1.204394           -2.427912           -0.071963
 C            0.622945           -1.119465           -0.004713
 C            1.358073           -0.000114            0.441148
 C            2.777394           -0.173230            0.835165
 C            3.056589           -0.496279            2.228365
 C            4.323933           -0.683056            2.658494
 C            5.449956           -0.565402            1.732038
 N            6.681186           -0.766420            2.194858
 C            7.759001           -0.658411            1.316203
 C            9.053604           -0.880192            1.820012
 C           10.164861           -0.784615            0.974280
 C           11.506060           -1.003904            1.433306
 C           12.563660           -0.898942            0.561821
 C           13.947525           -1.108425            0.954164
 C           14.950789           -0.991711            0.051658
 C           14.674815           -0.654309           -1.332423
 C           13.409282           -0.446825           -1.762821
 C           12.283958           -0.558896           -0.835958
 N           11.052902           -0.348575           -1.297069
 C            9.975001           -0.454508           -0.418995
 C            8.680040           -0.231860           -0.922533
 C            7.568599           -0.330059           -0.077616
 C            6.226248           -0.119724           -0.537483
 C            5.168272           -0.232517            0.333011
 C            3.785838           -0.043729           -0.065944
 C            0.763450            1.276302            0.519228
 C            1.489620            2.421347            0.985725
 C            0.907371            3.666570            1.053260
 C            1.634340            4.833987            1.533129
 C            1.044013            6.052481            1.578939
 C           -0.329045            6.226841            1.149160
 C           -1.053389            5.173220            0.701358
 C           -0.474012            3.838495            0.636866
 C           -1.193585            2.750866            0.197099
 C           -0.611278            1.442453            0.128049
 C           -3.767847            0.280126            0.215061
 C           -5.160720            0.404592           -0.171522
 C           -6.204930            0.197162            0.698117
 C           -7.560132            0.314795            0.243537
 C           -8.658516            0.104027            1.084869
 C           -9.967821            0.219446            0.582893
 N          -11.031765           -0.005874            1.455406
 C          -12.276563            0.094413            0.994417
 C          -13.386985           -0.145918            1.914844
 C          -14.665953           -0.055058            1.483865
 H          -16.022081            0.338303           -0.176540
 H          -14.199674            0.767001           -1.828299
 H          -11.719492            0.915544           -2.307988
 H           -9.231634            1.037797           -2.694660
 H           -4.614923            1.252402           -3.509190
 H           -2.234654            1.011223           -2.738522
 H           -2.510840           -1.958133           -1.186454
 H           -2.645415           -4.358523           -1.755384
 H           -1.557560           -6.603722           -1.839459
 H            0.765140           -6.904822           -1.086932
 H            2.096357           -4.966815           -0.247968
 H            2.242874           -2.549625            0.243173
 H            2.202809           -0.580337            2.903284
 H            4.563063           -0.926848            3.696288
 H            9.176387           -1.127946            2.876892
 H           11.662063           -1.254662            2.483557
 H           14.142494           -1.361673            1.996141
 H           15.992058           -1.146600            0.333066
 H           15.525047           -0.574884           -2.010449
 H           13.171342           -0.192089           -2.797497
 H            8.559619            0.016670           -1.979726
 H            6.069568            0.128275           -1.588657
 H            3.586683            0.201139           -1.110235
 H            2.528629            2.284365            1.292680
 H            2.665686            4.687429            1.852825
 H            1.577079            6.932251            1.937186
 H           -0.751156            7.229616            1.200264
 H           -2.086790            5.288780            0.375766
 H           -2.234046            2.870112           -0.112236
 H           -3.549224            0.012958            1.249998
 H           -6.027399           -0.063127            1.742997
 H           -8.516636           -0.153818            2.137168
 H          -13.126817           -0.397366            2.944986
 H          -15.505631           -0.231779            2.156624

