100

 C           -4.587934            3.808009            4.963139
 C           -3.144671            3.760097            4.815457
 C           -2.565457            3.016990            3.845128
 C           -3.387254            2.239077            2.917990
 N           -2.781440            1.516381            1.980435
 C           -3.552408            0.766040            1.093873
 C           -4.994646            0.765115            1.170488
 C           -5.612824            1.560171            2.194056
 C           -4.844191            2.290619            3.066792
 C           -5.398082            3.110453            4.131711
 C           -5.742039            0.002005            0.268884
 C           -5.094832           -0.772404           -0.711328
 N           -5.884799           -1.521643           -1.581454
 C           -5.292497           -2.270478           -2.511703
 C           -6.124325           -3.058289           -3.418917
 C           -5.554268           -3.833201           -4.370807
 C           -4.112919           -3.903108           -4.518731
 C           -3.294710           -3.191314           -3.706577
 C           -3.838766           -2.339429           -2.662964
 C           -3.054434           -1.597950           -1.810752
 C           -3.653864           -0.781816           -0.795408
 C           -2.895997           -0.008965            0.107594
 C           -1.413700           -0.012337            0.029613
 C           -0.681830           -0.943744            0.797068
 C           -1.330357           -1.899171            1.646067
 C           -0.612023           -2.807458            2.390494
 C           -1.261650           -3.780853            3.257108
 C           -0.534112           -4.668009            3.977931
 C            0.913042           -4.671400            3.904210
 C            1.567853           -3.786095            3.114638
 C            0.838242           -2.808400            2.319455
 C            1.481933           -1.897000            1.513051
 C            0.754972           -0.940467            0.731530
 C            1.410042           -0.000667           -0.093175
 C            2.893840            0.025007           -0.131336
 C            3.605219            0.816293            0.794432
 C            2.955957            1.619460            1.789145
 C            3.696394            2.371374            2.671287
 C            3.100656            3.204691            3.701500
 C            3.876761            3.925012            4.546884
 C            5.323309            3.884804            4.447206
 C            5.940337            3.129322            3.509013
 C            5.155257            2.331510            2.569572
 N            5.793234            1.598214            1.657070
 C            5.047941            0.834552            0.760866
 C            5.743595            0.067507           -0.191884
 C            5.042817           -0.717180           -1.111591
 C            5.712982           -1.516627           -2.098463
 C            4.991009           -2.276240           -2.985377
 C            5.600146           -3.110319           -4.008241
 C            4.835114           -3.837224           -4.856861
 C            3.386341           -3.805353           -4.771206
 C            2.756786           -3.050968           -3.841751
 C            3.528417           -2.244512           -2.895676
 N            2.874760           -1.516917           -1.994836
 C            3.598701           -0.743390           -1.088082
 C            0.677753            0.919777           -0.872361
 C            1.325573            1.865611           -1.733130
 C            0.606679            2.765562           -2.486655
 C            1.255419            3.725696           -3.368869
 C            0.527574            4.606632           -4.096770
 C           -0.919196            4.617173           -4.014942
 C           -1.573437            3.742818           -3.212990
 C           -0.843610            2.770828           -2.410696
 C           -1.486751            1.868929           -1.593722
 C           -0.759358            0.917767           -0.805481
 H           -4.990485            4.424807            5.766151
 H           -2.548084            4.345093            5.515766
 H           -1.483927            2.960345            3.708855
 H           -6.701823            1.565262            2.259127
 H           -6.482954            3.137848            4.231535
 H           -6.833610           -0.006747            0.313398
 H           -7.205281           -2.986714           -3.285418
 H           -6.159565           -4.428409           -5.055308
 H           -3.717871           -4.546573           -5.303631
 H           -2.209518           -3.232536           -3.805034
 H           -1.962371           -1.616822           -1.888441
 H           -2.420544           -1.889410            1.697029
 H           -2.350063           -3.765459            3.301372
 H           -1.008747           -5.399822            4.629440
 H            1.447830           -5.407170            4.502538
 H            2.655180           -3.775943            3.047941
 H            2.571565           -1.894734            1.450204
 H            1.861538            1.618980            1.829016
 H            2.012176            3.224042            3.763115
 H            3.442704            4.553368            5.323380
 H            5.893375            4.486024            5.156398
 H            7.026357            3.080381            3.411290
 H            6.835710            0.096637           -0.197992
 H            6.803619           -1.503084           -2.122205
 H            6.688572           -3.124956           -4.061229
 H            5.279109           -4.466552           -5.627612
 H            2.827616           -4.412075           -5.484043
 H            1.669672           -3.006612           -3.752629
 H            2.415621            1.852554           -1.787059
 H            2.343488            3.705011           -3.419058
 H            1.001450            5.327959           -4.760473
 H           -1.454128            5.348847           -4.618151
 H           -2.660459            3.737663           -3.140840
 H           -2.576225            1.868432           -1.528486

