96

 C           10.237762           -0.351308           -1.122593
 C            9.775849           -1.564608           -1.565570
 C            8.374188           -1.848961           -1.552016
 C            7.462034           -0.870322           -1.077936
 C            7.968197            0.395471           -0.616224
 C            9.330490            0.631827           -0.646076
 C            7.020552            1.411189           -0.121594
 C            7.455099            2.641754            0.336679
 C            6.536698            3.615328            0.810680
 C            5.190492            3.351978            0.823636
 C            4.700219            2.090675            0.360189
 C            5.612936            1.113224           -0.115330
 C            5.106486           -0.152339           -0.577588
 C            3.746292           -0.393098           -0.548966
 C            2.834951            0.590879           -0.068024
 C            1.383385            0.279421           -0.048009
 C            0.582122            0.611900           -1.159916
 C            1.135568            1.225504           -2.331320
 C            0.350996            1.550717           -3.414131
 C            0.905246            2.168102           -4.611030
 C            0.112512            2.483093           -5.663395
 C           -1.311273            2.215316           -5.624601
 C           -1.878191            1.639741           -4.537004
 C           -1.074777            1.275039           -3.378398
 C           -1.626890            0.682384           -2.265910
 C           -0.828441            0.328536           -1.129099
 C           -1.390340           -0.285982            0.009102
 C           -2.843324           -0.589743            0.039237
 C           -3.316101           -1.815827           -0.368744
 C           -4.715870           -2.097508           -0.323504
 C           -5.620433           -1.108423            0.143547
 C           -7.026912           -1.408155            0.188320
 C           -7.468271           -2.652402           -0.223975
 C           -6.558437           -3.637120           -0.691261
 C           -5.213537           -3.371410           -0.742433
 C           -7.965934           -0.380328            0.674287
 C           -9.326976           -0.617171            0.738143
 C          -10.225852            0.377333            1.206818
 C           -9.756697            1.602229            1.608621
 C           -8.356108            1.887682            1.558542
 C           -7.452502            0.897995            1.091193
 C           -6.045831            1.198267            1.046332
 C           -5.604090            2.442547            1.457992
 C           -6.513622            3.428280            1.924562
 C           -7.858345            3.161996            1.975652
 C           -5.106553            0.169359            0.562251
 C           -3.747011            0.408473            0.505270
 C           -0.588121           -0.622047            1.120179
 C           -1.141089           -1.238534            2.289915
 C           -0.354768           -1.573429            3.368811
 C           -0.908115           -2.197873            4.562186
 C           -0.113078           -2.525739            5.609209
 C            1.311563           -2.263495            5.567979
 C            1.877177           -1.680296            4.483600
 C            1.071520           -1.302476            3.331056
 C            1.622236           -0.702776            2.221255
 C            0.822323           -0.340494            1.088574
 C            3.300136            1.807612            0.375552
 C            6.054347           -1.168830           -1.071113
 C            5.619876           -2.400591           -1.525677
 C            6.537792           -3.375867           -1.997597
 C            7.883794           -3.111164           -2.012209
 H           11.302918           -0.122014           -1.128319
 H           10.461373           -2.326845           -1.932655
 H            9.737976            1.583784           -0.301891
 H            8.517451            2.889845            0.343123
 H            6.923054            4.571575            1.162436
 H            4.476784            4.091063            1.184455
 H            3.337453           -1.345334           -0.893885
 H            2.208342            1.430612           -2.348423
 H            1.977215            2.363345           -4.624198
 H            0.515910            2.943058           -6.564185
 H           -1.901831            2.492510           -6.496351
 H           -2.946830            1.431723           -4.492018
 H           -2.697652            0.469239           -2.230972
 H           -2.632975           -2.584777           -0.728020
 H           -8.529747           -2.902983           -0.198137
 H           -6.950027           -4.603787           -1.006612
 H           -4.506558           -4.118840           -1.099207
 H           -9.739777           -1.578429            0.428030
 H          -11.290346            0.147462            1.240124
 H          -10.435874            2.372928            1.969850
 H           -4.541592            2.693003            1.432516
 H           -6.121315            4.395139            2.239394
 H           -8.565462            3.909618            2.331773
 H           -3.332438            1.369357            0.818126
 H           -2.214626           -1.439372            2.309529
 H           -1.980883           -2.388156            4.577323
 H           -0.515699           -2.992263            6.506832
 H            1.904073           -2.551608            6.434840
 H            2.946533           -1.476336            4.436782
 H            2.693493           -0.492087            2.185689
 H            2.610724            2.566486            0.744226
 H            4.556607           -2.649028           -1.530723
 H            6.151109           -4.333478           -2.345633
 H            8.597164           -3.851246           -2.371543

