102

 C           -4.640077            7.778430            1.410135
 C           -6.068742            7.579780            1.568047
 C           -6.614130            6.343549            1.506492
 C           -5.769079            5.171882            1.278242
 N           -6.342315            3.971619            1.224497
 C           -5.542527            2.849192            1.008850
 C           -6.157464            1.587727            0.955393
 C           -5.391530            0.431808            0.743530
 C           -5.996713           -0.864674            0.687377
 C           -5.243096           -1.998597            0.482257
 C           -5.858537           -3.316583            0.426648
 C           -5.109942           -4.427243            0.226559
 C           -3.676978           -4.332261            0.061897
 C           -3.045774           -3.127666            0.103194
 C           -1.571967           -3.067153           -0.070144
 C           -0.733157           -3.169882            1.060044
 C           -1.264242           -3.238813            2.389499
 C           -0.444590           -3.358787            3.488924
 C           -0.975485           -3.437332            4.842698
 C           -0.148565           -3.548510            5.910172
 C            1.288942           -3.592187            5.731975
 C            1.835385           -3.526843            4.493921
 C            0.995980           -3.408955            3.309814
 C            1.527640           -3.343065            2.041781
 C            0.693462           -3.227268            0.882102
 C            1.234340           -3.185912           -0.420606
 C            2.694488           -3.376246           -0.614627
 C            3.192413           -4.634822           -0.753517
 C            4.607165           -4.857715           -0.948791
 C            5.471417           -3.816217           -0.998563
 C            5.001612           -2.445827           -0.855723
 C            5.873696           -1.381393           -0.905424
 C            5.412173           -0.033237           -0.764496
 C            6.298890            1.052604           -0.816424
 C            5.823891            2.366761           -0.675591
 N            6.740580            3.416761           -0.734485
 C            6.300191            4.666095           -0.602044
 C            7.267353            5.761450           -0.665330
 C            6.858599            7.044220           -0.534614
 C            5.459266            7.368809           -0.329555
 C            4.520705            6.394369           -0.263357
 C            4.887342            4.994411           -0.395432
 C            3.978035            3.964788           -0.336546
 C            4.413617            2.606161           -0.475170
 C            3.534448            1.516676           -0.424622
 C            4.005424            0.200544           -0.565984
 C            3.116755           -0.922162           -0.518256
 C            3.579452           -2.211550           -0.657257
 C            0.398711           -3.022886           -1.545827
 C            0.930962           -2.934099           -2.873741
 C            0.112544           -2.795866           -3.971703
 C            0.644314           -2.707231           -5.324562
 C           -0.180958           -2.569250           -6.390039
 C           -1.617723           -2.507635           -6.210784
 C           -2.165306           -2.586045           -4.974061
 C           -1.327530           -2.733205           -3.791905
 C           -1.860143           -2.812213           -2.525126
 C           -1.027752           -2.961422           -1.367722
 C           -3.801522           -1.892764            0.316704
 C           -3.201404           -0.654412            0.365790
 C           -3.965214            0.538886            0.578730
 C           -3.354000            1.802950            0.630911
 C           -4.112102            2.961861            0.842998
 C           -3.531838            4.271185            0.905780
 C           -4.326565            5.372799            1.119221
 C           -3.810457            6.729040            1.196315
 H           -4.264747            8.799342            1.470244
 H           -6.684131            8.463540            1.737945
 H           -7.685088            6.163355            1.621475
 H           -7.240161            1.521358            1.081927
 H           -7.077721           -0.931656            0.812578
 H           -6.939319           -3.372118            0.551986
 H           -5.558012           -5.419473            0.183308
 H           -3.120687           -5.256751           -0.096120
 H           -2.348337           -3.192257            2.515382
 H           -2.058259           -3.403733            4.960327
 H           -0.534084           -3.607668            6.926925
 H            1.906675           -3.678192            6.624702
 H            2.914127           -3.559339            4.343629
 H            2.609921           -3.376398            1.897684
 H            2.539366           -5.507561           -0.722376
 H            4.945666           -5.888058           -1.053888
 H            6.540003           -3.968304           -1.146209
 H            6.941288           -1.545002           -1.054273
 H            7.368190            0.889853           -0.967118
 H            8.312822            5.486862           -0.820720
 H            7.566038            7.872581           -0.579302
 H            5.196470            8.421512           -0.231769
 H            3.467246            6.625663           -0.110094
 H            2.915566            4.158247           -0.184698
 H            2.469035            1.691980           -0.273723
 H            2.051808           -0.730876           -0.368188
 H            2.015265           -2.977104           -2.999176
 H            1.726431           -2.755888           -5.443016
 H            0.205131           -2.500291           -7.405970
 H           -2.233875           -2.396375           -7.101781
 H           -3.243567           -2.541979           -4.823266
 H           -2.941527           -2.759942           -2.379859
 H           -2.120195           -0.559429            0.242653
 H           -2.273983            1.882370            0.505125
 H           -2.452895            4.369437            0.781345
 H           -2.736424            6.865770            1.076144

