92

 C           -5.648865            8.271407           -0.396761
 C           -4.593919            7.439736           -0.446540
 C           -4.922656            6.038520           -0.165222
 C           -4.086622            4.960378           -0.138039
 C           -4.615781            3.651580            0.163345
 C           -6.019442            3.496477            0.432593
 C           -6.528133            2.223246            0.725445
 C           -5.691420            1.098622            0.760241
 C           -6.218493           -0.212507            1.062983
 C           -5.365486           -1.265035            1.083361
 S           -5.749600           -2.947812            1.421113
 C           -4.077030           -3.462581            1.211857
 C           -3.258596           -2.434031            0.903349
 C           -1.808362           -2.577628            0.672857
 C           -1.336348           -2.862638           -0.626330
 C           -2.221389           -2.938122           -1.750755
 C           -1.761154           -3.246422           -3.010919
 C           -2.654448           -3.340458           -4.156947
 C           -2.180260           -3.654599           -5.386604
 C           -0.767282           -3.900300           -5.594620
 C            0.108201           -3.821434           -4.563576
 C           -0.345135           -3.493768           -3.219144
 C            0.523953           -3.419199           -2.154158
 C            0.065796           -3.109921           -0.832055
 C            0.947952           -3.065515            0.268844
 C            2.365471           -3.428218            0.079418
 C            2.835443           -4.692119            0.146527
 S            4.575591           -4.774244           -0.121517
 C            4.712720           -3.034073           -0.337514
 C            5.835758           -2.320417           -0.593433
 C            5.725880           -0.886501           -0.736353
 C            6.855168           -0.097951           -0.999535
 C            6.751256            1.293212           -1.138731
 C            5.464669            1.921872           -1.010788
 C            4.336026            1.131328           -0.747231
 C            4.438379           -0.260668           -0.606153
 C            3.273724           -1.069462           -0.332207
 C            3.404170           -2.421233           -0.199847
 C            5.351657            3.353861           -1.154382
 C            6.466504            4.098433           -1.408866
 C            6.571367            5.550244           -1.587532
 C            7.820742            5.984603           -1.827163
 S            8.990279            4.657128           -1.857654
 C            7.757551            3.445165           -1.533677
 C            7.916671            2.105419           -1.408581
 C            0.483436           -2.730228            1.558622
 C            1.368465           -2.654568            2.683327
 C            0.906359           -2.357051            3.945324
 C            1.795326           -2.290954            5.096851
 C            1.316336           -2.006263            6.331782
 C           -0.095829           -1.754457            6.538344
 C           -0.965793           -1.798422            5.500730
 C           -0.509033           -2.104609            4.152378
 C           -1.375826           -2.165431            3.084892
 C           -0.918518           -2.481349            1.763982
 C           -3.945194           -1.133441            0.814079
 C           -3.423070            0.093751            0.525501
 C           -4.287602            1.250222            0.490817
 C           -3.780309            2.524877            0.197872
 C           -6.883603            4.655136            0.396928
 C           -6.337820            5.861389            0.108744
 S           -7.147823            7.418797           -0.000438
 H           -5.679630            9.336272           -0.562075
 H           -3.573434            7.726362           -0.669511
 H           -3.021535            5.059058           -0.339051
 H           -7.592534            2.104990            0.929633
 H           -7.283254           -0.316552            1.265427
 H           -3.819884           -4.503587            1.334410
 H           -3.283836           -2.745573           -1.585299
 H           -3.713426           -3.151242           -3.983662
 H           -2.839184           -3.732070           -6.250231
 H           -0.440719           -4.148494           -6.603503
 H            1.173675           -4.001548           -4.703103
 H            1.591227           -3.598740           -2.301789
 H            2.281675           -5.598528            0.337573
 H            6.815219           -2.784950           -0.695166
 H            7.830317           -0.575519           -1.097365
 H            3.360257            1.608449           -0.649859
 H            2.303981           -0.580454           -0.234680
 H            4.369475            3.812195           -1.055370
 H            5.687381            6.172794           -1.522272
 H            8.167003            6.992052           -1.992733
 H            8.885615            1.617850           -1.502901
 H            2.431575           -2.842765            2.517253
 H            2.854116           -2.481403            4.923984
 H            1.970691           -1.958079            7.201075
 H           -0.426316           -1.530703            7.551664
 H           -2.030135           -1.610165            5.638474
 H           -2.441327           -1.973393            3.230047
 H           -2.360480            0.224380            0.318620
 H           -2.715750            2.642827           -0.007105
 H           -7.944970            4.524857            0.601982

