86

 C           -6.591987           -3.683098            1.752859
 C           -6.860114           -2.737964            0.823109
 C           -5.896139           -1.683652            0.523723
 C           -6.174569           -0.661098           -0.338882
 C           -5.223970            0.400756           -0.587767
 C           -5.598359            1.521737           -1.299220
 C           -4.721005            2.641977           -1.307713
 C           -5.046987            3.956517           -1.600822
 S           -3.758370            4.977805           -1.168270
 C           -2.746966            3.715955           -0.629000
 C           -3.348450            2.482959           -0.818192
 C           -2.859687            1.156320           -0.489067
 C           -1.442598            0.802234           -0.538355
 C           -0.966529           -0.513524           -0.262877
 C           -1.678189           -1.696793           -0.638575
 C           -1.242406           -2.954985           -0.283778
 C           -1.966958           -4.158791           -0.663713
 C           -1.544294           -5.382230           -0.262416
 C           -0.349395           -5.525313            0.544997
 C            0.375339           -4.439371            0.907363
 C           -0.027228           -3.101271            0.498119
 C            0.720299           -1.986639            0.799405
 C            0.324625           -0.679274            0.362809
 C            1.170547            0.433620            0.508125
 C            2.377914            0.365596            1.361998
 C            3.607904           -0.061019            0.871885
 C            3.777981           -0.466087           -0.504976
 C            4.986620           -0.881334           -0.990935
 C            5.160422           -1.285889           -2.382839
 C            6.363438           -1.691890           -2.848048
 C            7.520820           -1.738755           -1.971203
 C            7.421912           -1.377308           -0.671666
 C            6.152206           -0.927418           -0.108206
 C            6.029251           -0.553794            1.201262
 C            4.768348           -0.105825            1.749448
 C            4.664973            0.274328            3.075786
 C            3.421371            0.713811            3.599444
 C            3.128595            1.133381            4.895869
 S            1.494650            1.555895            5.009205
 C            1.116318            1.213165            3.398279
 C            2.251768            0.760757            2.728248
 C            0.878163            1.614290           -0.223349
 C            1.843198            2.647649           -0.392971
 C            1.635357            3.684421           -1.285472
 C            2.607899            4.745475           -1.480809
 C            2.405283            5.710570           -2.413380
 C            1.219165            5.700197           -3.240115
 C            0.278514            4.733171           -3.090169
 C            0.431918            3.696925           -2.084795
 C           -0.542388            2.735117           -1.869141
 C           -0.403664            1.741282           -0.863866
 C           -3.866953            0.264125           -0.066412
 C           -3.657009           -0.769076            0.917883
 C           -4.609032           -1.708113            1.215093
 C           -4.388353           -2.745018            2.217220
 C           -5.329269           -3.683566            2.470684
 H           -7.306660           -4.468997            1.992445
 H           -7.800441           -2.724733            0.274380
 H           -7.141424           -0.593629           -0.835996
 H           -6.563191            1.596160           -1.792945
 H           -5.982079            4.317806           -1.989016
 H           -1.789332            3.916008           -0.170387
 H           -2.573983           -1.583419           -1.255820
 H           -2.863792           -4.034856           -1.270447
 H           -2.084193           -6.288924           -0.530406
 H           -0.059080           -6.531269            0.843670
 H            1.279160           -4.529494            1.509077
 H            1.657365           -2.080918            1.353162
 H            2.899444           -0.428698           -1.153905
 H            4.281539           -1.245146           -3.026311
 H            6.504577           -1.994205           -3.884328
 H            8.462733           -2.074626           -2.402032
 H            8.280906           -1.408323           -0.002815
 H            6.885304           -0.582371            1.874713
 H            5.529111            0.243893            3.736541
 H            3.815936            1.190804            5.720546
 H            0.133552            1.335863            2.972712
 H            2.775811            2.588201            0.173075
 H            3.499587            4.734450           -0.854778
 H            3.124339            6.513348           -2.567796
 H            1.109518            6.490783           -3.980694
 H           -0.619348            4.709587           -3.706925
 H           -1.428433            2.708002           -2.508923
 H           -2.715337           -0.752743            1.474731
 H           -3.432506           -2.737777            2.741474
 H           -5.172811           -4.465818            3.211284

