84

 C           -6.898318            1.101987            2.802948
 C           -7.713380            0.578290            1.796936
 C           -7.142264            0.021848            0.641004
 C           -5.726612           -0.001988            0.504513
 C           -4.906407            0.535171            1.534358
 C           -5.507572            1.083449            2.678931
 C           -3.466009            0.503735            1.367363
 C           -2.890134           -0.024971            0.254945
 C           -1.411320           -0.024942            0.114954
 C           -0.772224            1.079681           -0.487680
 C           -1.515825            2.187050           -1.012233
 C           -0.889097            3.269659           -1.586838
 C           -1.635674            4.394801           -2.132198
 C           -0.996235            5.457483           -2.677941
 C            0.451180            5.502391           -2.732263
 C            1.193795            4.477932           -2.247778
 C            0.561000            3.306088           -1.658644
 C            1.294143            2.246291           -1.174820
 C            0.662548            1.101824           -0.587101
 C            1.410852            0.007719           -0.102849
 C            2.889189            0.011481           -0.248677
 C            3.459781           -0.477509           -1.381843
 C            4.898614           -0.485824           -1.564688
 C            5.493790           -0.986717           -2.733881
 C            6.882879           -0.976946           -2.876145
 C            7.702353           -0.472260           -1.863842
 C            7.137151            0.035409           -0.682863
 C            5.723202            0.030885           -0.527989
 C            5.122271            0.550143            0.678867
 C            5.951477            1.065789            1.714069
 C            5.361297            1.568979            2.884416
 C            3.972865            1.563086            3.029675
 C            3.151144            1.059699            2.019035
 C            3.707883            0.548610            0.836083
 C            7.392850            1.055911            1.526723
 C            7.953983            0.569342            0.394144
 C            0.771758           -1.096317            0.499395
 C            1.515411           -2.204897            1.021808
 C            0.889157           -3.284740            1.601341
 C            1.636533           -4.410549            2.144612
 C            0.998258           -5.469469            2.698479
 C           -0.448904           -5.509664            2.763968
 C           -1.192450           -4.485610            2.280034
 C           -0.560877           -3.317778            1.681247
 C           -1.294414           -2.259010            1.196104
 C           -0.663200           -1.117380            0.601645
 C           -3.703742           -0.590873           -0.818804
 C           -3.140896           -1.149621           -1.977041
 C           -3.958135           -1.676508           -2.979320
 C           -5.348072           -1.657695           -2.850602
 C           -5.944287           -1.106681           -1.705067
 C           -5.119654           -0.568977           -0.677545
 C           -7.387417           -1.067663           -1.536525
 C           -7.954465           -0.533913           -0.428290
 H           -7.353144            1.531017            3.695832
 H           -8.796007            0.602121            1.909749
 H           -4.885389            1.496021            3.471634
 H           -2.856104            0.924534            2.168623
 H           -2.605913            2.152575           -0.949603
 H           -2.723079            4.345319           -2.084821
 H           -1.543778            6.304136           -3.089276
 H            0.913147            6.383859           -3.174423
 H            2.282717            4.496344           -2.280472
 H            2.385120            2.262812           -1.228105
 H            2.846506           -0.878518           -2.190537
 H            4.868340           -1.383659           -3.531845
 H            7.332883           -1.367860           -3.788727
 H            8.783558           -0.472587           -1.991610
 H            5.988443            1.965427            3.681695
 H            3.523945            1.955724            3.941901
 H            2.067452            1.063387            2.149711
 H            8.006743            1.456017            2.333803
 H            9.034774            0.562657            0.254677
 H            2.605202           -2.172663            0.953194
 H            2.723692           -4.364313            2.088364
 H            1.546253           -6.316711            3.108140
 H           -0.909832           -6.387930            3.213518
 H           -2.281138           -4.501378            2.320607
 H           -2.385194           -2.272954            1.253805
 H           -2.055982           -1.172165           -2.095007
 H           -3.504652           -2.106614           -3.872167
 H           -5.971666           -2.071607           -3.641644
 H           -7.997814           -1.484474           -2.337656
 H           -9.036663           -0.504347           -0.303590

