84

 C           -7.068973            0.742384            2.749634
 C           -5.674515            0.673429            2.724380
 C           -4.997452            0.474036            1.510298
 C           -5.744794            0.343495            0.307806
 C           -7.164878            0.414754            0.344959
 C           -7.812649            0.614870            1.574479
 C           -7.903017            0.277210           -0.899148
 C           -7.263225            0.085671           -2.077304
 C           -5.813602            0.009737           -2.147957
 C           -5.143432           -0.187059           -3.365808
 C           -3.749536           -0.254768           -3.397613
 C           -3.001641           -0.129672           -2.224681
 C           -3.639507            0.067120           -0.989769
 C           -5.060296            0.139214           -0.947882
 C           -2.901736            0.201458            0.264455
 C           -1.418551            0.119812            0.245474
 C           -0.656583            1.300574            0.119711
 C           -1.275211            2.583433           -0.041811
 C           -0.529492            3.736120           -0.141945
 C           -1.148987            5.044960           -0.296696
 C           -0.394385            6.166120           -0.393592
 C            1.052100            6.092120           -0.342377
 C            1.679538            4.899985           -0.198141
 C            0.920401            3.661675           -0.093340
 C            1.535793            2.438660            0.048637
 C            0.779672            1.226388            0.162603
 C            1.407224           -0.026709            0.324147
 C            2.887450           -0.100658            0.425438
 C            3.483039           -0.038785            1.646355
 C            4.923504           -0.119845            1.793614
 C            5.722320           -0.265402            0.626400
 C            7.137391           -0.350884            0.742537
 C            7.729056           -0.291537            2.014491
 C            6.935047           -0.148327            3.154431
 C            5.545180           -0.062186            3.051546
 C            7.928913           -0.497583           -0.467312
 C            7.342903           -0.553041           -1.686932
 C            5.899821           -0.470247           -1.837973
 C            5.285246           -0.528876           -3.098823
 C            3.895916           -0.448036           -3.207601
 C            3.097557           -0.308353           -2.070214
 C            3.679199           -0.245783           -0.794068
 C            5.094979           -0.326887           -0.673466
 C            0.645832           -1.210630            0.421894
 C            1.265254           -2.494930            0.568114
 C            0.519750           -3.645859            0.686439
 C            1.139865           -4.953777            0.846471
 C            0.385466           -6.073323            0.960508
 C           -1.061497           -5.997652            0.928924
 C           -1.689668           -4.806027            0.783753
 C           -0.930413           -3.570154            0.653064
 C           -1.546050           -2.348482            0.500707
 C           -0.790332           -1.136026            0.384583
 C           -3.550858            0.395031            1.443564
 H           -7.583425            0.897546            3.697958
 H           -5.109318            0.774596            3.649443
 H           -8.899076            0.670938            1.612262
 H           -8.990037            0.334000           -0.847604
 H           -7.816482           -0.017662           -3.010540
 H           -5.712867           -0.287033           -4.288571
 H           -3.238420           -0.407095           -4.348128
 H           -1.912706           -0.185655           -2.268207
 H           -2.365964            2.627977           -0.085336
 H           -2.237533            5.083683           -0.329214
 H           -0.846321            7.149939           -0.510095
 H            1.609038            7.024475           -0.421867
 H            2.765947            4.827197           -0.153827
 H            2.625886            2.370850            0.076656
 H            2.887309            0.071778            2.554361
 H            8.811095           -0.357516            2.112965
 H            7.406096           -0.103425            4.136371
 H            4.940229            0.049553            3.949834
 H            9.011015           -0.560854           -0.355373
 H            7.936179           -0.662141           -2.594621
 H            5.894224           -0.638002           -3.994959
 H            3.428200           -0.494454           -4.190955
 H            2.012982           -0.247071           -2.173931
 H            2.356684           -2.542540            0.583237
 H            2.228614           -4.992526            0.872323
 H            0.837557           -7.056691            1.080331
 H           -1.618327           -6.928214            1.027486
 H           -2.776609           -4.731289            0.761953
 H           -2.636007           -2.282369            0.464887
 H           -2.995497            0.495445            2.377999

