116

 C           -3.303143           -2.508996            7.035513
 C           -1.893094           -2.271684            6.782394
 C           -1.476695           -1.780593            5.592014
 C           -2.427135           -1.483940            4.526872
 C           -2.022033           -1.030862            3.297765
 C           -2.954149           -0.741827            2.238937
 C           -4.367742           -0.746510            2.588532
 C           -4.769638           -1.308403            3.857313
 C           -3.848639           -1.678357            4.798589
 C           -4.233502           -2.228571            6.094043
 C           -5.302704           -0.230682            1.713298
 C           -4.865188            0.541299            0.594271
 C           -5.754805            1.358801           -0.114449
 C           -5.290226            2.284478           -1.065342
 C           -6.178280            3.130493           -1.799339
 C           -5.695602            4.067149           -2.689481
 C           -6.583835            4.938671           -3.444314
 C           -6.091223            5.845671           -4.323057
 C           -4.664239            5.974083           -4.532485
 C           -3.792902            5.192041           -3.849419
 C           -4.264500            4.202245           -2.893030
 C           -3.392854            3.396562           -2.190152
 C           -3.874669            2.414486           -1.271239
 C           -2.992738            1.560909           -0.579148
 C           -3.458191            0.549822            0.267627
 C           -2.577190           -0.411569            0.920985
 C           -1.391894           -0.951963            0.255908
 C           -0.519134           -1.900505            0.873178
 C           -0.979771           -2.937722            1.741531
 C           -0.109903           -3.785148            2.395823
 C           -0.580162           -4.839520            3.281025
 C            0.295766           -5.633338            3.944479
 C            1.724502           -5.455679            3.783978
 C            2.215036           -4.500961            2.956420
 C            1.320245           -3.633262            2.205278
 C            1.783978           -2.710198            1.294966
 C            0.885159           -1.886340            0.543412
 C            1.335521           -1.102952           -0.536705
 C            2.786415           -0.931132           -0.792692
 C            3.468039            0.175299           -0.207538
 C            2.805050            1.123077            0.613236
 C            3.484452            2.197942            1.176007
 C            2.815004            3.164165            2.009041
 C            3.491246            4.222328            2.559285
 C            2.825405            5.208834            3.402860
 C            3.508379            6.247304            3.937876
 C            4.928661            6.409113            3.686205
 C            5.599571            5.525580            2.911241
 C            4.920117            4.385463            2.305374
 C            5.583130            3.480931            1.516799
 C            4.899483            2.359963            0.923959
 C            5.560513            1.437581            0.120999
 C            4.875345            0.338872           -0.457856
 C            5.550422           -0.597991           -1.277532
 C            4.879615           -1.674767           -1.847160
 C            5.562971           -2.627760           -2.684013
 C            4.902160           -3.688558           -3.248219
 C            5.578142           -4.660914           -4.099922
 C            4.903536           -5.699094           -4.646629
 C            3.484282           -5.876375           -4.400257
 C            2.805020           -5.005932           -3.617820
 C            3.475403           -3.866887           -3.001122
 C            2.801318           -2.974880           -2.207482
 C            3.465921           -1.849770           -1.601853
 C            0.382705           -0.560835           -1.432253
 C            0.768808           -0.034739           -2.701647
 C           -0.170150            0.292263           -3.659650
 C            0.202124            0.812872           -4.964776
 C           -0.740026            1.056458           -5.909639
 C           -2.139142            0.803584           -5.640332
 C           -2.537754            0.327779           -4.434060
 C           -1.572288            0.071747           -3.378415
 C           -1.957279           -0.367357           -2.124428
 C           -1.012920           -0.597387           -1.082752
 H           -3.578003           -2.917557            8.006900
 H           -1.191905           -2.504664            7.581759
 H           -0.421383           -1.602387            5.383433
 H           -0.962974           -0.830638            3.110261
 H           -5.837913           -1.394172            4.052796
 H           -5.294952           -2.398911            6.267994
 H           -6.368831           -0.344891            1.894988
 H           -6.820306            1.307903            0.105092
 H           -7.249608            3.019636           -1.638158
 H           -7.654133            4.833536           -3.273028
 H           -6.747173            6.500849           -4.893970
 H           -4.322684            6.715411           -5.252693
 H           -2.716288            5.275884           -3.994202
 H           -2.315461            3.482974           -2.337221
 H           -1.917066            1.712908           -0.704521
 H           -2.059153           -3.079313            1.848653
 H           -1.657754           -4.956103            3.395897
 H           -0.043955           -6.421864            4.614236
 H            2.382360           -6.115102            4.347771
 H            3.286522           -4.354803            2.822933
 H            2.854841           -2.615281            1.100263
 H            1.736313            0.998606            0.802045
 H            1.748230            3.027981            2.189225
 H            1.759088            5.073662            3.582063
 H            3.020688            6.989245            4.568431
 H            5.426744            7.263303            4.142815
 H            6.665210            5.633944            2.713291
 H            6.648829            3.588610            1.317976
 H            6.626288            1.551997           -0.074225
 H            6.616337           -0.464005           -1.460461
 H            6.628230           -2.478454           -2.856667
 H            6.643069           -4.515534           -4.275887
 H            5.398253           -6.430286           -5.284554
 H            2.994064           -6.729662           -4.866095
 H            1.739127           -5.123542           -3.421675
 H            1.732500           -3.100636           -2.016593
 H            1.834402            0.071908           -2.917543
 H            1.259896            0.994877           -5.151847
 H           -0.475210            1.444170           -6.892025
 H           -2.854202            1.009720           -6.435526
 H           -3.588174            0.136780           -4.214499
 H           -3.011770           -0.580504           -1.928661

