116

 C           -4.531880            7.411017            2.465283
 C           -3.083790            7.314085            2.478230
 C           -2.464125            6.173566            2.095427
 C           -3.228127            5.010579            1.658533
 C           -2.616651            3.846497            1.269211
 C           -3.382206            2.705565            0.838511
 C           -2.767146            1.521356            0.444428
 C           -3.522113            0.399697            0.020012
 C           -4.956739            0.500741           -0.001594
 C           -5.576345            1.709953            0.402381
 C           -4.824276            2.803445            0.818876
 C           -5.438986            4.037973            1.234632
 C           -4.684647            5.108536            1.642305
 C           -5.292595            6.364424            2.068613
 C           -5.724947           -0.611324           -0.426427
 C           -5.118834           -1.797689           -0.821645
 C           -5.899942           -2.927679           -1.256127
 C           -5.306531           -4.100207           -1.645493
 C           -6.085069           -5.251363           -2.088898
 C           -5.478907           -6.400865           -2.466346
 C           -4.032731           -6.521743           -2.441038
 C           -3.259724           -5.485512           -2.040750
 C           -3.852197           -4.219899           -1.622523
 C           -3.084822           -3.159259           -1.214957
 C           -3.676998           -1.912521           -0.801302
 C           -2.905707           -0.822730           -0.385236
 C           -1.422849           -0.916051           -0.356517
 C           -0.680693           -0.588899           -1.511649
 C           -1.321418           -0.227995           -2.741581
 C           -0.595063            0.091059           -3.866490
 C           -1.236664            0.456165           -5.121599
 C           -0.501140            0.768487           -6.215726
 C            0.946949            0.745885           -6.165308
 C            1.594660            0.411897           -5.023130
 C            0.856237            0.068261           -3.816062
 C            1.492475           -0.272348           -2.643890
 C            0.756832           -0.611253           -1.461685
 C            1.406991           -0.959451           -0.258195
 C            2.890932           -0.920134           -0.188651
 C            3.642821           -2.055170           -0.508705
 C            3.027834           -3.294879           -0.909281
 C            3.775524           -4.400652           -1.222226
 C            3.159238           -5.658945           -1.627450
 C            3.912700           -6.740438           -1.934086
 C            5.361213           -6.676759           -1.867845
 C            5.989050           -5.536523           -1.497402
 C            5.231912           -4.337823           -1.153994
 C            5.846810           -3.172820           -0.774859
 C            5.086322           -1.995924           -0.439503
 C            5.713349           -0.816546           -0.055197
 C            4.964833            0.340554            0.273468
 C            5.605454            1.543082            0.665484
 C            4.872878            2.680356            0.988316
 C            5.508950            3.909533            1.388354
 C            4.773650            5.023322            1.704281
 C            5.403074            6.275042            2.111741
 C            4.660675            7.363792            2.419911
 C            3.211547            7.318117            2.353182
 C            2.572354            6.184763            1.981547
 C            3.315867            4.977894            1.637965
 C            2.684201            3.820983            1.260178
 C            3.429390            2.635733            0.923051
 C            2.793634            1.459402            0.539107
 C            3.528703            0.293847            0.207516
 C            0.664639           -1.330234            0.883264
 C            1.305419           -1.724858            2.103001
 C            0.578814           -2.084993            3.215138
 C            1.220250           -2.487825            4.458890
 C            0.484433           -2.836892            5.541587
 C           -0.963688           -2.819957            5.489474
 C           -1.611162           -2.454388            4.356969
 C           -0.872607           -2.067180            3.163184
 C           -1.508676           -1.688698            2.002780
 C           -0.772891           -1.310043            0.832654
 H           -4.976431            8.352295            2.785607
 H           -2.523002            8.188013            2.805791
 H           -1.378589            6.083802            2.100185
 H           -1.530692            3.755435            1.276431
 H           -1.677227            1.448323            0.460954
 H           -6.663791            1.773487            0.382580
 H           -6.526851            4.095819            1.215729
 H           -6.380357            6.422443            2.054147
 H           -6.810984           -0.523804           -0.439741
 H           -6.984084           -2.819783           -1.265549
 H           -7.169145           -5.145597           -2.102804
 H           -6.050372           -7.266120           -2.798939
 H           -3.600692           -7.470897           -2.754168
 H           -2.172951           -5.559359           -2.016416
 H           -1.995216           -3.236050           -1.194570
 H           -2.413577           -0.214212           -2.770003
 H           -2.325984            0.468162           -5.142765
 H           -0.969796            1.044321           -7.159095
 H            1.488366            1.005847           -7.073624
 H            2.682653            0.389966           -4.968478
 H            2.583871           -0.292829           -2.596389
 H            1.936861           -3.329485           -0.956721
 H            2.070984           -5.689397           -1.671752
 H            3.462752           -7.684412           -2.237335
 H            5.916528           -7.577167           -2.126337
 H            7.075153           -5.473825           -1.443003
 H            6.932798           -3.106991           -0.717356
 H            6.800694           -0.770060           -0.002476
 H            6.693743            1.565740            0.711383
 H            6.597484            3.927535            1.432549
 H            6.491348            6.294872            2.156939
 H            5.121222            8.302373            2.725359
 H            2.666148            8.224313            2.611691
 H            1.485754            6.133698            1.925514
 H            1.597035            3.769483            1.204967
 H            1.702783            1.426688            0.489925
 H            2.397578           -1.736693            2.131730
 H            2.309568           -2.495422            4.481452
 H            0.953001           -3.138300            6.477197
 H           -1.505356           -3.109901            6.388487
 H           -2.699172           -2.436447            4.300988
 H           -2.600082           -1.673103            1.953596

