104

 C          -15.041921            0.557453           -0.027776
 C          -14.039513            0.109131           -0.821262
 C          -12.645640            0.249728           -0.422349
 C          -11.612310           -0.198746           -1.214517
 C          -10.245949           -0.052310           -0.807734
 C           -9.183487           -0.504284           -1.606701
 C           -7.849418           -0.353437           -1.195684
 C           -6.753518           -0.807835           -2.000452
 C           -5.449511           -0.652667           -1.585706
 C           -4.322515           -1.106621           -2.389808
 C           -3.046487           -0.944933           -1.967164
 C           -2.765613           -0.308766           -0.689534
 C           -1.348165           -0.156272           -0.279387
 C           -0.721265           -1.186184            0.453270
 C           -1.412501           -2.392734            0.801667
 C           -0.798891           -3.394252            1.519426
 C           -1.492107           -4.623684            1.877914
 C           -0.868080           -5.596108            2.585495
 C            0.509871           -5.437384            3.004935
 C            1.200875           -4.312783            2.699208
 C            0.581961           -3.234909            1.940395
 C            1.265299           -2.085030            1.615392
 C            0.648317           -1.031090            0.864692
 C            1.348598            0.144685            0.521537
 C            2.770865            0.291149            0.917087
 C            3.071114            0.908620            2.199246
 C            4.353723            1.066317            2.603505
 C            5.468406            0.626351            1.774741
 C            6.778967            0.779338            2.169402
 C            7.862330            0.340121            1.339493
 C            9.203066            0.489895            1.728871
 C           10.252798            0.053975            0.904454
 C           11.625832            0.199711            1.288543
 C           12.646334           -0.232483            0.471023
 C           14.046764           -0.092376            0.846473
 C           15.036217           -0.524105            0.027868
 C           14.727544           -1.138895           -1.247646
 C           13.442418           -1.294334           -1.646889
 C           12.337241           -0.849649           -0.808986
 C           11.025266           -0.999245           -1.197736
 C            9.948546           -0.557074           -0.362673
 C            8.609140           -0.706781           -0.752666
 C            7.560602           -0.271066            0.071887
 C            6.191053           -0.420531           -0.319265
 C            5.166064            0.008727            0.493529
 C            3.772807           -0.137644            0.105489
 C            0.720534            1.176082           -0.207917
 C            1.411384            2.383377           -0.555172
 C            0.798615            3.383621           -1.275239
 C            1.492566            4.612274           -1.635449
 C            0.870290            5.582109           -2.348005
 C           -0.506983            5.422567           -2.769209
 C           -1.199062            4.299516           -2.460543
 C           -0.581615            3.223454           -1.697870
 C           -1.265333            2.074297           -1.371698
 C           -0.648776            1.020715           -0.619930
 C           -3.779778            0.131938            0.100124
 C           -5.166931           -0.017757           -0.308338
 C           -6.204408            0.425565            0.480786
 C           -7.567586            0.275194            0.068050
 C           -8.628984            0.727126            0.867060
 C           -9.961864            0.576745            0.455335
 C          -11.051784            1.035822            1.263757
 C          -12.357126            0.885445            0.853459
 C          -13.475618            1.347558            1.663832
 C          -14.753851            1.191074            1.243433
 H          -16.087022            0.457230           -0.316918
 H          -14.240449           -0.368918           -1.779301
 H          -11.815263           -0.676643           -2.172520
 H           -9.399038           -0.980217           -2.562871
 H           -6.979325           -1.281914           -2.955371
 H           -4.546644           -1.581280           -3.345248
 H           -2.196007           -1.280585           -2.560743
 H           -2.450528           -2.503437            0.480796
 H           -2.527478           -4.727653            1.555688
 H           -1.376737           -6.518999            2.859752
 H            0.963119           -6.250750            3.569540
 H            2.236990           -4.178184            3.007532
 H            2.303215           -1.955273            1.929483
 H            2.229681            1.234069            2.811124
 H            4.592579            1.527736            3.561914
 H            7.019762            1.240622            3.126991
 H            9.434033            0.952721            2.687941
 H           11.844400            0.664048            2.249840
 H           14.263515            0.371681            1.808003
 H           16.086044           -0.423912            0.299528
 H           15.561425           -1.467628           -1.866137
 H           13.193205           -1.754403           -2.602471
 H           10.777882           -1.459652           -2.153923
 H            8.378781           -1.169224           -1.712165
 H            5.978598           -0.885120           -1.282130
 H            3.561036           -0.602224           -0.857935
 H            2.448451            2.495530           -0.231620
 H            2.527140            4.717312           -1.310908
 H            1.379935            6.503731           -2.624902
 H           -0.958802            6.233762           -3.338010
 H           -2.234773            4.164386           -2.769865
 H           -2.303199            1.944510           -1.685875
 H           -3.582748            0.609938            1.060153
 H           -6.006907            0.902826            1.440698
 H           -8.413891            1.203329            1.823442
 H          -10.819831            1.509984            2.217161
 H          -13.241987            1.821671            2.616545
 H          -15.597677            1.532917            1.841010

