104

 C           -6.065618            7.374320            1.439865
 C           -4.631102            7.528699            1.304753
 C           -3.834387            6.450263            1.111389
 C           -4.392858            5.107347            1.033883
 C           -3.600039            3.998694            0.838110
 C           -4.165329            2.684047            0.766165
 C           -3.365561            1.547284            0.569056
 C           -3.931838            0.264413            0.503722
 C           -3.127112           -0.904630            0.305640
 C           -3.687692           -2.160755            0.245857
 C           -5.127917           -2.311556            0.385249
 C           -5.920280           -1.201150            0.573830
 C           -5.356190            0.113332            0.639741
 C           -6.156815            1.249557            0.834572
 C           -5.590331            2.531610            0.901330
 C           -6.396689            3.698771            1.102767
 C           -5.832515            4.952785            1.169875
 C           -6.638558            6.148224            1.375709
 C           -5.700244           -3.648740            0.322455
 C           -4.913714           -4.735913            0.138991
 C           -3.481925           -4.595992           -0.002368
 C           -2.890192           -3.371738            0.046185
 C           -1.416863           -3.260809           -0.106377
 C           -0.591643           -3.315558            1.037179
 C           -1.139447           -3.398320            2.359056
 C           -0.332063           -3.475131            3.471394
 C           -0.879418           -3.568160            4.817596
 C           -0.064322           -3.643155            5.897391
 C            1.376169           -3.632273            5.740286
 C            1.937880           -3.546420            4.510364
 C            1.111778           -3.463613            3.314050
 C            1.659281           -3.375658            2.054158
 C            0.838571           -3.304357            0.881350
 C            1.397692           -3.240113           -0.412944
 C            2.871145           -3.329990           -0.577832
 C            3.457035           -4.547149           -0.740442
 C            4.889200           -4.668207           -0.894138
 C            5.682250           -3.570286           -0.877389
 C            5.116264           -2.239692           -0.708071
 C            5.915233           -1.118027           -0.689248
 C            5.357507            0.190479           -0.525691
 C            6.165366            1.338286           -0.503206
 C            5.605320            2.614773           -0.343788
 C            6.419451            3.793794           -0.317439
 C            5.861661            5.042627           -0.161716
 C            6.675760            6.250110           -0.132485
 C            6.108881            7.470956            0.020687
 C            4.672974            7.608032            0.159940
 C            3.868793            6.517982            0.140167
 C            4.420564            5.179708           -0.021169
 C            3.620232            4.059616           -0.043118
 C            4.179045            2.749741           -0.202798
 C            3.371972            1.601593           -0.224344
 C            3.932220            0.323839           -0.381786
 C            3.120495           -0.856698           -0.402279
 C            3.675427           -2.107289           -0.557493
 C            0.572684           -3.138962           -1.552825
 C            1.120569           -3.042335           -2.874013
 C            0.313477           -2.968076           -3.986367
 C            0.861029           -2.881965           -5.333084
 C            0.046278           -2.809165           -6.413084
 C           -1.394304           -2.813364           -6.255755
 C           -1.956435           -2.891704           -5.025597
 C           -1.130592           -2.974660           -3.828871
 C           -1.678384           -3.057692           -2.568978
 C           -0.857800           -3.148343           -1.396969
 H           -6.658973            8.274263            1.593596
 H           -4.223835            8.536868            1.364567
 H           -2.754742            6.551536            1.008319
 H           -2.520081            4.100472            0.734015
 H           -2.286414            1.661819            0.465657
 H           -2.047278           -0.774740            0.203081
 H           -7.000091           -1.302948            0.678248
 H           -7.235482            1.134589            0.936419
 H           -7.473944            3.569075            1.202707
 H           -7.715259            6.016228            1.475525
 H           -6.780572           -3.738634            0.429098
 H           -5.328876           -5.742109            0.091617
 H           -2.894289           -5.502462           -0.149456
 H           -2.226387           -3.397642            2.468075
 H           -1.964209           -3.574980            4.919594
 H           -0.461953           -3.712807            6.908560
 H            1.983436           -3.694803            6.641870
 H            3.019141           -3.536813            4.375869
 H            2.744105           -3.356921            1.926822
 H            2.864355           -5.462056           -0.757414
 H            5.299537           -5.669471           -1.021173
 H            6.762993           -3.646451           -0.989810
 H            6.995616           -1.206293           -0.799829
 H            7.244742            1.236430           -0.611256
 H            7.497529            3.677042           -0.424203
 H            7.753403            6.131002           -0.238353
 H            6.708161            8.379862            0.043796
 H            4.270812            8.612831            0.279916
 H            2.788075            6.606103            0.243662
 H            2.539113            4.148086            0.061086
 H            2.291866            1.702636           -0.116901
 H            2.040036           -0.740543           -0.290234
 H            2.207529           -3.027291           -2.981630
 H            1.945830           -2.879195           -5.435141
 H            0.443820           -2.745185           -7.424694
 H           -2.001187           -2.750971           -7.157570
 H           -3.037709           -2.895364           -4.891114
 H           -2.763146           -3.054101           -2.440121

