96

 C           -5.390905            8.428131            2.121425
 C           -6.326115            7.736057            1.329436
 C           -5.977476            6.534583            0.715926
 C           -4.662498            6.004375            0.897547
 C           -3.726904            6.710132            1.695695
 C           -4.111031            7.928910            2.303968
 C           -2.403602            6.157449            1.863998
 C           -2.056733            4.981745            1.274433
 C           -2.991075            4.239301            0.460547
 C           -4.284020            4.756755            0.277402
 C           -5.248145            4.044765           -0.528633
 C           -4.900441            2.847570           -1.113578
 C           -3.593847            2.297719           -0.939023
 C           -3.242426            1.047875           -1.542780
 C           -1.990464            0.514556           -1.376788
 C           -1.012920            1.214633           -0.605014
 C            0.347843            0.644906           -0.472500
 C            1.407510            1.267892           -1.054171
 C            2.755667            0.735521           -0.953051
 C            3.831474            1.358463           -1.545973
 C            5.154865            0.822107           -1.430987
 C            6.257640            1.446201           -2.035648
 C            7.550000            0.913074           -1.913070
 C            8.681964            1.534569           -2.534355
 C            9.947605            1.009787           -2.399788
 C           11.108083            1.628949           -3.025294
 C           12.346779            1.100884           -2.876464
 C           12.550368           -0.098985           -2.089790
 C           11.505985           -0.716934           -1.487714
 C           10.151487           -0.196530           -1.613190
 C            9.076677           -0.813642           -1.013937
 C            7.749866           -0.288890           -1.146424
 C            6.646758           -0.916844           -0.548099
 C            5.352841           -0.387371           -0.676201
 C            4.218809           -1.021369           -0.072985
 C            2.954128           -0.491186           -0.200374
 C            1.791975           -1.123817            0.399582
 C            0.546181           -0.592841            0.276686
 C           -0.611616           -1.264710            0.910608
 C           -1.273964           -0.629912            2.005799
 C           -2.317982           -1.259451            2.632787
 C           -2.767308           -2.547096            2.196730
 C           -3.853293           -3.199933            2.855906
 C           -4.295147           -4.435203            2.437513
 C           -5.399331           -5.122410            3.101834
 C           -5.838305           -6.328245            2.684225
 C           -5.230558           -7.005639            1.543783
 C           -4.140611           -6.369972            0.872006
 C           -3.530808           -7.011319           -0.235679
 C           -4.013091           -8.271803           -0.661697
 C           -5.072964           -8.873747           -0.002262
 C           -5.683977           -8.245883            1.099368
 C           -2.429906           -6.352368           -0.898082
 C           -1.983357           -5.139633           -0.473589
 C           -2.588777           -4.461530            0.649141
 C           -3.660576           -5.081466            1.312275
 C           -2.124019           -3.172346            1.097024
 C           -1.031026           -2.500571            0.469565
 C           -1.329383            2.417402           -0.012597
 C           -2.630390            2.988228           -0.158466
 C           -6.577455            4.625507           -0.697479
 C           -6.920679            5.793136           -0.114345
 H           -5.684839            9.365832            2.592729
 H           -7.325691            8.147629            1.200268
 H           -3.391116            8.469391            2.916560
 H           -1.692382            6.710545            2.477291
 H           -1.054258            4.568380            1.405501
 H           -5.618672            2.296342           -1.719907
 H           -3.993669            0.526532           -2.135733
 H           -1.721218           -0.443105           -1.821752
 H            1.272901            2.189376           -1.622910
 H            3.695410            2.276412           -2.117580
 H            6.106896            2.360360           -2.609597
 H            8.514307            2.437245           -3.121356
 H           10.938926            2.529416           -3.614345
 H           13.221151            1.556205           -3.338808
 H           13.566669           -0.480137           -2.003459
 H           11.642822           -1.619307           -0.893102
 H            9.214453           -1.718050           -0.421773
 H            6.796336           -1.831574            0.025328
 H            4.381632           -1.938797            0.492527
 H            1.955875           -2.044707            0.961733
 H           -0.935427            0.355722            2.324634
 H           -2.826116           -0.787883            3.473804
 H           -4.326404           -2.697033            3.698971
 H           -5.854532           -4.617018            3.953895
 H           -6.662113           -6.838055            3.184126
 H           -3.543440           -8.762741           -1.512541
 H           -5.443676           -9.843543           -0.333531
 H           -6.515010           -8.738058            1.601677
 H           -1.968485           -6.855932           -1.747334
 H           -1.149912           -4.646075           -0.978343
 H           -0.530199           -2.984576           -0.371042
 H           -0.585100            2.951808            0.580936
 H           -7.282840            4.072521           -1.318082
 H           -7.914151            6.223039           -0.243660

