80

 C           -4.356098            3.364086           -3.069481
 C           -3.121576            2.642753           -3.217357
 C           -2.528717            2.056944           -2.139880
 C           -3.111919            2.155383           -0.820750
 C           -4.327641            2.898636           -0.672969
 C           -4.939810            3.483649           -1.844847
 C           -4.892970            3.065487            0.598301
 C           -4.265478            2.542070            1.736555
 C           -4.812142            2.759663            3.057205
 C           -4.167820            2.294953            4.163405
 C           -2.934108            1.568614            4.033178
 C           -2.402206            1.322618            2.803520
 C           -3.050312            1.795415            1.601029
 C           -2.510835            1.575756            0.316501
 C           -1.269565            0.776159            0.164308
 C           -0.064022            1.406080            0.175002
 C            1.182210            0.677009            0.021443
 C            2.403440            1.313373            0.028857
 C            3.621816            0.577036           -0.126782
 C            4.872297            1.215121           -0.122394
 C            6.059528            0.483567           -0.275467
 C            7.341719            1.123332           -0.273231
 C            8.501262            0.396901           -0.423386
 C            9.812053            1.032027           -0.423300
 C           10.942195            0.300003           -0.572052
 C           10.876763           -1.138707           -0.735631
 C            9.684065           -1.780838           -0.743342
 C            8.435637           -1.046885           -0.587903
 C            7.214156           -1.681365           -0.593428
 C            5.994657           -0.945127           -0.439118
 C            4.745263           -1.582961           -0.444106
 C            3.557033           -0.851201           -0.291698
 C            2.276348           -1.491796           -0.296331
 C            1.116931           -0.764268           -0.145918
 C           -0.190526           -1.395525           -0.147864
 C           -1.334965           -0.675481           -0.000017
 C           -2.642960           -1.377057           -0.005315
 C           -3.149452           -1.920730            1.193982
 C           -2.410493           -1.879712            2.435929
 C           -2.914005           -2.434794            3.573438
 C           -4.206755           -3.063342            3.569498
 C           -4.937876           -3.123901            2.422154
 C           -4.426536           -2.569769            1.188541
 C           -5.149178           -2.677545           -0.007111
 C           -4.621751           -2.190494           -1.210395
 C           -5.336039           -2.348513           -2.457357
 C           -4.791036           -1.924852           -3.631351
 C           -3.495181           -1.302636           -3.646932
 C           -2.804393           -1.112902           -2.488310
 C           -3.343851           -1.542904           -1.218027
 H           -4.804152            3.806850           -3.957217
 H           -2.678543            2.579157           -4.209538
 H           -1.592385            1.507433           -2.246285
 H           -5.876461            4.023537           -1.714210
 H           -5.824268            3.620374            0.704425
 H           -5.749353            3.308423            3.136300
 H           -4.566027            2.460108            5.162952
 H           -2.442247            1.222967            4.940567
 H           -1.467543            0.770349            2.697530
 H           -0.001658            2.489029            0.299252
 H            2.465280            2.394470            0.153687
 H            4.920723            2.296608            0.001967
 H            7.375781            2.205388           -0.148971
 H            9.844572            2.114028           -0.299223
 H           11.927139            0.764813           -0.573438
 H           11.815964           -1.677867           -0.851041
 H            9.618003           -2.861583           -0.865263
 H            7.149716           -2.762250           -0.715867
 H            4.695458           -2.664400           -0.568351
 H            2.240235           -2.573897           -0.422567
 H           -0.225887           -2.479626           -0.272733
 H           -1.430752           -1.400057            2.433434
 H           -2.353914           -2.416015            4.506606
 H           -4.578076           -3.485236            4.501694
 H           -5.920318           -3.593132            2.400760
 H           -6.126492           -3.158468           -0.003641
 H           -6.317532           -2.819011           -2.425836
 H           -5.316385           -2.045646           -4.576992
 H           -3.086410           -0.989265           -4.605808
 H           -1.821227           -0.640312           -2.492989

