100

 C            5.478604            5.352920            4.227252
 C            4.662601            5.782930            3.235810
 C            3.608405            4.928638            2.703991
 C            2.780498            5.356372            1.691887
 C            1.759959            4.492735            1.173808
 N            0.950075            4.930068            0.169647
 C            0.026633            4.062250           -0.320491
 C           -0.846797            4.470165           -1.383160
 C           -1.737695            3.581745           -1.936764
 C           -2.636676            3.992300           -3.007863
 C           -3.479950            3.107638           -3.589065
 C           -3.490963            1.719221           -3.181369
 C           -2.688321            1.278635           -2.177335
 C           -2.660952           -0.158916           -1.814500
 C           -3.314242           -0.616744           -0.715043
 C           -3.271922           -2.019030           -0.334348
 C           -3.963910           -2.497067            0.755611
 C           -3.898470           -3.879278            1.127320
 C           -4.627408           -4.383252            2.215608
 C           -4.556121           -5.739279            2.570428
 C           -5.321383           -6.272251            3.658190
 C           -5.249828           -7.605151            3.995289
 C           -6.038118           -8.166973            5.083529
 C           -5.952317           -9.480904            5.402057
 C           -5.067156          -10.363809            4.669209
 C           -4.313469           -9.894658            3.645894
 C           -4.371212           -8.493808            3.251303
 C           -3.626843           -8.001826            2.202611
 C           -3.702157           -6.622802            1.820711
 C           -2.974448           -6.118830            0.731336
 C           -3.067107           -4.768426            0.359364
 C           -2.365305           -4.251064           -0.777985
 C           -2.467701           -2.925450           -1.136325
 C           -1.810951           -2.395880           -2.320717
 C           -1.914274           -1.085740           -2.665086
 C           -1.324671           -0.586192           -3.932073
 C           -0.063891            0.158125           -3.906153
 C            0.648307            0.353274           -2.746100
 C            1.841755            1.149025           -2.745423
 N            2.501499            1.371271           -1.575961
 C            3.610394            2.154959           -1.612156
 C            4.324100            2.432917           -0.398172
 C            5.445586            3.226722           -0.415292
 C            6.178602            3.531257            0.807386
 C            7.283862            4.312560            0.783631
 C            7.771770            4.866891           -0.464423
 C            7.129635            4.620493           -1.630532
 C            5.930303            3.792458           -1.670072
 C            5.265830            3.546297           -2.848233
 C            4.087263            2.727186           -2.863373
 N            3.433221            2.498780           -4.033225
 C            2.314042            1.722669           -3.994335
 C            1.578673            1.462731           -5.196059
 C            0.428071            0.707908           -5.164347
 C           -0.321466            0.436003           -6.383287
 C           -1.462356           -0.292266           -6.353232
 C           -1.979582           -0.804999           -5.103895
 C           -1.802103            2.202741           -1.461809
 C           -1.031273            1.807131           -0.394960
 C           -0.096155            2.712889            0.211977
 N            0.677369            2.293063            1.246500
 C            1.611542            3.158024            1.730279
 C            2.479216            2.746243            2.795202
 C            3.452441            3.594764            3.270051
 C            4.356307            3.191888            4.339877
 C            5.320917            4.027742            4.793030
 H            6.269352            5.984239            4.630668
 H            4.766248            6.777595            2.801148
 H            2.876610            6.350755            1.248869
 H           -0.768531            5.501766           -1.734350
 H           -2.599334            5.036217           -3.319479
 H           -4.161036            3.404594           -4.386084
 H           -4.148979            1.037342           -3.720580
 H           -3.887618            0.060169           -0.079119
 H           -4.578138           -1.829710            1.360365
 H           -5.262645           -3.711220            2.792445
 H           -5.969782           -5.593566            4.211956
 H           -6.698468           -7.490841            5.625382
 H           -6.540105           -9.911917            6.211100
 H           -5.032366          -11.409453            4.971420
 H           -3.643257          -10.546041            3.086213
 H           -2.964363           -8.656676            1.637107
 H           -2.329891           -6.788417            0.162150
 H           -1.751266           -4.938207           -1.360127
 H           -1.241093           -3.095592           -2.934357
 H            0.326244           -0.075052           -1.790802
 H            3.937863            1.995640            0.527423
 H            5.795136            3.110942            1.739251
 H            7.835433            4.548037            1.692772
 H            8.668215            5.484800           -0.425836
 H            7.485058            5.030473           -2.575888
 H            5.604798            3.962327           -3.799639
 H            1.961885            1.887182           -6.126809
 H            0.073252            0.841114           -7.315057
 H           -2.027968           -0.506963           -7.259477
 H           -2.916782           -1.360971           -5.133480
 H           -1.079625            0.792217            0.013608
 H            2.339716            1.741560            3.201717
 H            4.220661            2.195420            4.760496
 H            6.000490            3.735103            5.592771

