102

 C           -5.326413            4.608396           -2.268345
 C           -3.985811            4.782928           -2.104412
 C           -3.323309            4.093125           -1.034688
 C           -2.011879            4.042043           -0.589043
 C           -0.749820            4.629345           -1.003945
 C            0.213063            4.986005           -0.043106
 C            1.419778            5.559222           -0.447554
 C            1.676197            5.771840           -1.806228
 C            0.724089            5.407129           -2.763771
 C           -0.487821            4.836186           -2.369503
 O           -1.929018            3.208051            0.537780
 C           -3.215589            2.719965            0.786783
 C           -3.355448            1.804465            1.909486
 C           -4.344769            2.077334            2.872131
 C           -4.543073            1.206641            3.943303
 C           -3.761758            0.051405            4.060086
 C           -2.776204           -0.225396            3.112328
 C           -2.560526            0.648007            2.034992
 C           -1.494439            0.323775            1.057284
 C           -0.227817            0.779667            1.241354
 C            0.838172            0.459855            0.306104
 C            2.119382            0.934783            0.474870
 C            3.158975            0.611068           -0.456571
 C            4.465181            1.099188           -0.299789
 C            5.475952            0.774792           -1.218416
 C            6.811746            1.270923           -1.071918
 C            7.797831            0.943146           -1.975507
 C            9.160822            1.437856           -1.840129
 C           10.118326            1.101732           -2.737862
 C            9.809960            0.239470           -3.860711
 C            8.558032           -0.247847           -4.035192
 C            7.488298            0.078617           -3.102558
 C            6.209723           -0.406801           -3.263317
 C            5.168372           -0.077020           -2.336749
 C            3.860893           -0.563233           -2.494835
 C            2.849233           -0.234568           -1.579690
 C            1.508781           -0.716526           -1.735587
 C            0.522543           -0.384526           -0.834033
 C           -0.847048           -0.846968           -0.988699
 C           -1.815742           -0.508970           -0.097903
 C           -3.215268           -0.952291           -0.302999
 C           -4.078471           -0.127090           -1.041898
 C           -5.398926           -0.512432           -1.272537
 C           -5.873287           -1.729333           -0.769175
 C           -5.029236           -2.551541           -0.023717
 C           -3.696766           -2.168615            0.218057
 C           -2.872861           -3.040485            1.043010
 C           -3.015668           -3.564565            2.317507
 C           -4.033416           -3.451341            3.322552
 C           -3.866879           -4.113188            4.500321
 C           -2.692772           -4.922310            4.755368
 C           -1.699697           -5.052500            3.832830
 C           -1.826530           -4.368051            2.577840
 C           -1.035953           -4.285096            1.443095
 C            0.247895           -4.829659            1.035157
 C            0.437037           -5.284291           -0.281382
 C            1.667994           -5.823208           -0.660025
 C            2.714762           -5.902030            0.264509
 C            2.531838           -5.437055            1.571166
 C            1.302573           -4.901905            1.961699
 O           -1.668190           -3.477828            0.483573
 C           -4.101148            3.238951           -0.144040
 C           -5.510609            3.080318           -0.359525
 C           -6.094183            3.747361           -1.392709
 H           -5.865031            5.115876           -3.066925
 H           -3.399008            5.431657           -2.750701
 H            0.009745            4.808187            1.012972
 H            2.162810            5.840541            0.296999
 H            2.619454            6.216381           -2.118566
 H            0.930694            5.562514           -3.821697
 H           -1.222028            4.537817           -3.116536
 H           -4.952855            2.977255            2.777052
 H           -5.305062            1.426511            4.688992
 H           -3.921071           -0.635494            4.890574
 H           -2.173637           -1.133010            3.198056
 H            0.023498            1.410893            2.094606
 H            2.368015            1.572084            1.322893
 H            4.698655            1.741581            0.548709
 H            7.029621            1.918132           -0.222907
 H            9.376885            2.085583           -0.991452
 H           11.140502            1.465131           -2.645432
 H           10.616871            0.001457           -4.551848
 H            8.310373           -0.896842           -4.874197
 H            5.963891           -1.055482           -4.103484
 H            3.627666           -1.206045           -3.343107
 H            1.287344           -1.354656           -2.590580
 H           -1.070532           -1.480479           -1.848053
 H           -3.711576            0.827684           -1.426518
 H           -6.059930            0.136976           -1.845421
 H           -6.900596           -2.034424           -0.960032
 H           -5.395771           -3.498428            0.373548
 H           -4.905721           -2.836722            3.110042
 H           -4.616421           -4.057548            5.287599
 H           -2.634638           -5.427366            5.718138
 H           -0.816196           -5.662052            4.008009
 H           -0.380528           -5.211237           -0.998486
 H            1.812304           -6.182385           -1.677719
 H            3.673704           -6.321450           -0.034371
 H            3.352708           -5.486223            2.285190
 H            1.163277           -4.527954            2.975279
 H           -6.067745            2.428299            0.309907
 H           -7.160677            3.656321           -1.590251

