96

 C           -0.042874           -6.403881           -6.483041
 C           -0.173241           -6.699416           -5.170173
 C           -0.257992           -5.629312           -4.180446
 N           -0.372187           -5.921390           -2.891096
 C           -0.460342           -4.862880           -1.983465
 C           -0.577077           -5.145334           -0.613629
 C           -0.691594           -4.083507            0.296703
 N           -0.823420           -4.359208            1.659348
 C           -0.952992           -3.337572            2.497149
 C           -1.113312           -3.592649            3.924140
 C           -1.294996           -2.562504            4.780314
 C           -1.313195           -1.188873            4.319052
 C           -1.138284           -0.862419            3.011353
 C           -1.130058            0.547574            2.560025
 C           -2.009843            0.969035            1.610910
 C           -2.046801            2.348223            1.156652
 C           -2.939536            2.774467            0.198333
 C           -2.973213            4.142222           -0.226559
 C           -3.884434            4.588861           -1.196224
 C           -3.921425            5.934988           -1.591849
 C           -4.851751            6.403248           -2.575840
 C           -4.889879            7.727724           -2.949946
 C           -5.833429            8.220684           -3.944221
 C           -5.854540            9.527764           -4.299948
 C           -4.933580           10.472368           -3.700316
 C           -4.036136           10.068181           -2.769350
 C           -3.968799            8.676489           -2.344685
 C           -3.064224            8.246894           -1.399478
 C           -3.008058            6.873507           -0.994375
 C           -2.089400            6.424642           -0.032601
 C           -2.052652            5.078489            0.363879
 C           -1.122896            4.609141            1.347834
 C           -1.108589            3.289603            1.742278
 C           -0.179673            2.795879            2.744286
 C           -0.183359            1.495514            3.145626
 C            0.761222            1.064036            4.203999
 C            1.823947            0.096267            3.896895
 N            1.955660           -0.407681            2.677670
 C            2.963156           -1.346356            2.451650
 C            3.091863           -1.913761            1.173382
 C            4.088599           -2.875757            0.950312
 N            4.204777           -3.453861           -0.316741
 C            5.150707           -4.364814           -0.502360
 C            5.309554           -5.004520           -1.805665
 C            6.271597           -5.935390           -1.994389
 C            7.173321           -6.323466           -0.921752
 C            7.085921           -5.770461            0.308960
 C            6.068022           -4.762321            0.591487
 N            5.977565           -4.225451            1.801224
 C            4.982836           -3.268510            2.022622
 C            4.858234           -2.696214            3.297248
 C            3.853377           -1.742394            3.524259
 N            3.713810           -1.184078            4.796021
 C            2.740154           -0.302508            4.990969
 C            2.558780            0.290486            6.311545
 C            1.564190            1.180884            6.524130
 C            0.658726            1.570128            5.461708
 C           -0.963437           -1.934622            2.016731
 N           -0.835816           -1.655550            0.727015
 C           -0.687973           -2.713009           -0.172627
 C           -0.550036           -2.428995           -1.540302
 C           -0.437476           -3.490550           -2.451574
 N           -0.306375           -3.207318           -3.813285
 C           -0.214915           -4.227860           -4.656171
 C           -0.067539           -3.987722           -6.089114
 C            0.016233           -5.028044           -6.948687
 H            0.020635           -7.190152           -7.236801
 H           -0.221639           -7.723870           -4.794280
 H           -0.582284           -6.181770           -0.259392
 H           -1.083451           -4.635915            4.246643
 H           -1.427441           -2.731533            5.850735
 H           -1.464983           -0.412612            5.072279
 H           -2.712190            0.271443            1.148548
 H           -3.640451            2.074555           -0.257450
 H           -4.575867            3.877888           -1.648260
 H           -5.532696            5.680039           -3.023700
 H           -6.518407            7.498910           -4.387552
 H           -6.557267            9.907271           -5.040320
 H           -4.991055           11.510078           -4.025486
 H           -3.337536           10.766787           -2.310490
 H           -2.369381            8.948277           -0.938177
 H           -1.393341            7.133620            0.414971
 H           -0.423082            5.324906            1.778326
 H            0.530835            3.511401            3.160834
 H            2.417229           -1.610402            0.363014
 H            4.620000           -4.694723           -2.594845
 H            6.402317           -6.426726           -2.959835
 H            7.925195           -7.080572           -1.150275
 H            7.752661           -6.042836            1.130455
 H            5.533623           -2.993163            4.106922
 H            3.254595           -0.021706            7.093900
 H            1.409463            1.636042            7.504232
 H           -0.121789            2.292613            5.710981
 H           -0.529933           -1.391195           -1.891969
 H           -0.028906           -2.945258           -6.414119
 H            0.130346           -4.868135           -8.021888

