100

 C           11.760497           -0.946468           -2.533954
 C           11.101042           -1.651264           -1.583704
 C            9.691056           -1.412783           -1.322198
 C            8.969752           -2.097922           -0.374041
 C            7.577508           -1.812455           -0.175870
 C            6.795920           -2.483829            0.771097
 C            5.432417           -2.167066            0.916528
 N            4.689605           -2.863031            1.868317
 C            3.396345           -2.581534            2.014837
 C            2.633723           -3.328197            3.012908
 C            1.313867           -3.089103            3.184997
 C            0.625352           -2.084948            2.400863
 C            1.284148           -1.347998            1.467743
 C            0.573755           -0.296028            0.700536
 C            0.582102            0.992375            1.134003
 C           -0.123224            2.041487            0.416758
 C           -0.129956            3.347228            0.856450
 C           -0.838039            4.366683            0.141723
 C           -0.855172            5.700258            0.582935
 C           -1.556145            6.689209           -0.123058
 C           -1.582506            8.053156            0.317673
 C           -2.272820            9.016704           -0.381942
 C           -2.309086           10.406557            0.052943
 C           -2.992967           11.340939           -0.650049
 C           -3.709351           10.981624           -1.857439
 C           -3.710247            9.703809           -2.306996
 C           -2.993129            8.655714           -1.593367
 C           -2.982062            7.351867           -2.033943
 C           -2.269783            6.331888           -1.321592
 C           -2.252052            5.000735           -1.763335
 C           -1.550280            4.010092           -1.056761
 C           -1.526209            2.647872           -1.497876
 C           -0.840749            1.682335           -0.793694
 C           -0.815031            0.293926           -1.221663
 C           -0.147269           -0.656702           -0.515643
 C           -0.149879           -2.066249           -0.976837
 C           -1.296871           -2.906554           -0.641014
 C           -2.360258           -2.485062            0.121432
 C           -3.453159           -3.370685            0.400517
 C           -4.560928           -2.984195            1.164013
 C           -5.607485           -3.893266            1.403042
 N           -6.691688           -3.463099            2.167168
 C           -7.690934           -4.309599            2.403434
 C           -8.824128           -3.849322            3.205008
 C           -9.857893           -4.680397            3.469177
 C           -9.872688           -6.042177            2.968057
 C           -8.850909           -6.521220            2.218991
 C           -7.706785           -5.684558            1.895821
 C           -6.641956           -6.115089            1.141128
 C           -5.545314           -5.231942            0.863793
 C           -4.437468           -5.618399            0.100999
 C           -3.391130           -4.708264           -0.139669
 N           -2.307385           -5.132185           -0.906578
 C           -1.310791           -4.282135           -1.147348
 C           -0.182111           -4.745826           -1.951268
 C            0.856967           -3.920459           -2.212539
 C            0.876283           -2.558773           -1.719407
 C            2.707355           -1.561756            1.218079
 C            3.435817           -0.870228            0.279430
 C            4.830712           -1.146541            0.091038
 C            5.613713           -0.471840           -0.853104
 C            6.976317           -0.789867           -1.000220
 N            7.715467           -0.096324           -1.957928
 C            9.004265           -0.388928           -2.114958
 C            9.770584            0.340730           -3.124353
 C           11.081161            0.068295           -3.317890
 H           12.816672           -1.116614           -2.740745
 H           11.601609           -2.415186           -0.989029
 H            9.434902           -2.868538            0.242540
 H            7.230369           -3.259969            1.405643
 H            3.180122           -4.074570            3.593083
 H            0.726735           -3.642164            3.919647
 H           -0.439671           -1.943270            2.587929
 H            1.119162            1.276227            2.041132
 H            0.405037            3.630301            1.763316
 H           -0.313976            5.970870            1.489597
 H           -1.039142            8.310020            1.226756
 H           -1.766025           10.662183            0.962002
 H           -3.026158           12.382617           -0.334177
 H           -4.241906           11.772705           -2.383223
 H           -4.244449            9.419039           -3.212576
 H           -3.517663            7.067608           -2.939425
 H           -2.793043            4.729422           -2.669863
 H           -2.067542            2.391162           -2.408769
 H           -1.356941            0.038394           -2.134313
 H           -2.398170           -1.470735            0.527234
 H           -4.628735           -1.976243            1.580656
 H           -8.785266           -2.820082            3.567551
 H          -10.710613           -4.354055            4.064959
 H          -10.735473           -6.659046            3.217610
 H           -8.852641           -7.541834            1.836902
 H           -6.606698           -7.128883            0.739591
 H           -4.370021           -6.625810           -0.316376
 H           -0.226915           -5.773824           -2.316353
 H            1.710994           -4.251729           -2.805237
 H            1.743112           -1.945562           -1.968287
 H            2.971261           -0.098583           -0.339885
 H            5.180007            0.306617           -1.485490
 H            9.233439            1.098889           -3.697815
 H           11.667030            0.601426           -4.066988

