100

 C           -3.675491            1.272651            5.605002
 C           -4.876149            2.054065            5.377176
 C           -5.178156            2.532853            4.147833
 C           -4.290368            2.273532            3.016675
 N           -4.617403            2.756603            1.818367
 C           -3.770648            2.515573            0.738230
 C           -4.138891            3.041758           -0.513294
 C           -3.308347            2.859656           -1.622329
 C           -3.635898            3.396292           -2.912942
 C           -2.783907            3.221658           -3.975942
 C           -3.047336            3.735366           -5.309646
 C           -2.162577            3.538438           -6.316174
 C           -0.927141            2.810577           -6.092671
 C           -0.624161            2.302055           -4.876276
 C           -1.543920            2.476272           -3.752569
 N           -1.219164            1.948298           -2.575100
 C           -2.077978            2.115814           -1.488520
 C           -1.724550            1.543574           -0.241567
 C           -0.479738            0.746208           -0.118562
 C            0.727856            1.371246           -0.134940
 C            1.973254            0.632153           -0.014018
 C            3.197044            1.263452           -0.007542
 C            4.415630            0.518415            0.107718
 C            5.667592            1.152584            0.127583
 C            6.855073            0.411719            0.235670
 C            8.138590            1.047920            0.262322
 C            9.298158            0.312204            0.364595
 C           10.610265            0.943750            0.394427
 C           11.740101            0.202607            0.492982
 C           11.672696           -1.242700            0.571382
 C           10.478324           -1.881761            0.549067
 C            9.230383           -1.138014            0.445871
 C            8.006727           -1.769197            0.424396
 C            6.787708           -1.023405            0.322208
 C            5.535296           -1.657298            0.306633
 C            4.347667           -0.916219            0.205945
 C            3.062952           -1.550928            0.202757
 C            1.903719           -0.814357            0.103267
 C            0.591725           -1.439223            0.120261
 C           -0.551006           -0.708602            0.020041
 C           -1.868879           -1.388420            0.062753
 C           -2.340673           -1.932598            1.283267
 N           -1.535296           -1.840608            2.418826
 C           -1.962225           -2.359586            3.567287
 C           -1.096733           -2.267438            4.742614
 C           -1.493869           -2.787988            5.926377
 C           -2.781037           -3.443739            6.064842
 C           -3.624682           -3.552760            5.010860
 C           -3.260917           -3.020296            3.708461
 C           -4.068469           -3.105824            2.600945
 C           -3.634143           -2.571589            1.341248
 C           -4.421498           -2.661034            0.190373
 C           -3.945699           -2.151084           -1.031092
 N           -4.764533           -2.282859           -2.150691
 C           -4.336551           -1.815843           -3.323234
 C           -5.203130           -1.946525           -4.492286
 C           -4.800406           -1.478892           -5.696750
 C           -3.507034           -0.843106           -5.861136
 C           -2.661788           -0.702697           -4.811652
 C           -3.030395           -1.178719           -3.489487
 C           -2.215772           -1.053303           -2.388705
 C           -2.649556           -1.519008           -1.103395
 C           -2.549474            1.758831            0.880716
 C           -2.229798            1.263828            2.188350
 C           -3.073030            1.496579            3.249154
 C           -2.815962            1.006094            4.592306
 H           -3.495590            0.908547            6.615281
 H           -5.526107            2.239581            6.232580
 H           -6.075459            3.120389            3.946054
 H           -5.077804            3.593997           -0.599465
 H           -4.573981            3.942946           -3.023299
 H           -3.978638            4.280579           -5.463366
 H           -2.346694            3.920713           -7.319443
 H           -0.252706            2.692234           -6.941272
 H            0.301691            1.758586           -4.676837
 H            0.795233            2.454202           -0.253499
 H            3.262269            2.348040           -0.091987
 H            5.718692            2.238990            0.059009
 H            8.174975            2.135198            0.199743
 H           10.645099            2.030863            0.334547
 H           12.725760            0.664763            0.516267
 H           12.611270           -1.789301            0.648088
 H           10.411688           -2.967501            0.607176
 H            7.941446           -2.855235            0.485230
 H            5.484367           -2.743762            0.374574
 H            3.024699           -2.636871            0.286514
 H            0.553146           -2.523879            0.236084
 H           -0.131152           -1.775870            4.607444
 H           -0.859520           -2.733382            6.811621
 H           -3.038376           -3.845238            7.044226
 H           -4.594856           -4.041424            5.101018
 H           -5.049748           -3.580736            2.651053
 H           -5.409394           -3.126981            0.220337
 H           -6.169558           -2.429624           -4.338380
 H           -5.434952           -1.565129           -6.578999
 H           -3.245047           -0.483914           -6.855101
 H           -1.687141           -0.222720           -4.917748
 H           -1.224674           -0.589198           -2.470469
 H           -1.302726            0.691456            2.320286
 H           -1.912702            0.412378            4.744465

