102

 C           -5.076720           -1.156647           -2.679190
 C           -3.733014           -1.691303           -2.572539
 C           -2.764420           -1.013422           -1.911463
 C           -3.035896            0.268024           -1.281747
 C           -4.387337            0.818044           -1.413239
 C           -5.394441            0.038991           -2.132655
 N           -4.743957            1.996170           -0.908120
 C           -3.790756            2.759930           -0.236409
 C           -4.180606            4.014801            0.261271
 C           -3.255195            4.843515            0.912198
 C           -3.627543            6.131138            1.418910
 C           -2.706474            6.949486            2.033640
 C           -3.064473            8.266570            2.542273
 C           -2.141117            9.061451            3.134774
 C           -0.769528            8.618474            3.284156
 C           -0.382939            7.400638            2.833640
 C           -1.329789            6.505248            2.183782
 C           -0.954003            5.266844            1.712894
 C           -1.894450            4.400947            1.067241
 C           -1.514736            3.138563            0.581099
 C           -2.433573            2.298367           -0.060678
 C           -2.094395            0.995366           -0.579564
 C           -0.718023            0.479759           -0.373459
 C            0.282287            0.870184           -1.208019
 C            1.646492            0.400887           -1.037540
 C            2.661914            0.791189           -1.882897
 C            4.000884            0.317031           -1.700206
 C            5.041832            0.699680           -2.562275
 C            6.350542            0.232615           -2.370651
 C            7.420461            0.611296           -3.246427
 C            8.703048            0.153928           -3.045947
 C            9.801282            0.530502           -3.925891
 C           11.057467            0.071749           -3.710696
 C           11.343358           -0.809860           -2.596348
 C           10.359862           -1.192939           -1.747264
 C            8.989886           -0.731898           -1.927683
 C            7.976744           -1.111154           -1.076835
 C            6.633111           -0.649720           -1.268166
 C            5.592816           -1.037131           -0.410857
 C            4.280940           -0.574761           -0.606076
 C            3.209674           -0.969442            0.258383
 C            1.927722           -0.505019            0.061676
 C            0.828065           -0.897866            0.925643
 C           -0.436697           -0.439363            0.727037
 C           -1.530800           -0.884643            1.625618
 C           -2.160828           -2.157867            1.372978
 C           -1.761961           -3.028488            0.350608
 C           -2.412967           -4.255441            0.140143
 C           -2.004596           -5.148324           -0.902592
 C           -2.646509           -6.349447           -1.106229
 C           -2.240229           -7.269498           -2.159395
 C           -2.879803           -8.449937           -2.340522
 C           -3.991160           -8.827366           -1.490635
 C           -4.414038           -8.006821           -0.499046
 C           -3.763003           -6.727019           -0.254078
 C           -4.172604           -5.882624            0.753402
 C           -3.514245           -4.631362            0.987156
 C           -3.911449           -3.774447            2.023768
 C           -3.248492           -2.553766            2.236609
 N           -3.663615           -1.758981            3.303771
 C           -3.033511           -0.610202            3.536050
 C           -3.467725            0.200768            4.673002
 C           -2.849987            1.369483            4.959082
 C           -1.742561            1.844046            4.152074
 C           -1.304094            1.134161            3.085171
 C           -1.927463           -0.123344            2.707919
 H           -5.816506           -1.752365           -3.214258
 H           -3.535740           -2.655569           -3.039782
 H           -1.748907           -1.404286           -1.833821
 H           -6.394758            0.471366           -2.198371
 H           -5.216141            4.335276            0.126604
 H           -4.664237            6.447976            1.301619
 H           -4.099620            8.585650            2.424819
 H           -2.397673           10.049844            3.513562
 H           -0.069032            9.297451            3.768203
 H            0.644405            7.054141            2.939815
 H            0.074733            4.923226            1.818899
 H           -0.479825            2.811598            0.701072
 H            0.085701            1.554476           -2.036279
 H            2.464040            1.471938           -2.711355
 H            4.827829            1.370105           -3.394760
 H            7.191162            1.274153           -4.080628
 H            9.571750            1.192767           -4.759961
 H           11.885587            0.347795           -4.362081
 H           12.370611           -1.149148           -2.470681
 H           10.559821           -1.855417           -0.905780
 H            8.177158           -1.773983           -0.235177
 H            5.805105           -1.708368            0.421463
 H            3.433586           -1.651091            1.079492
 H            1.053152           -1.583096            1.745926
 H           -0.925217           -2.752800           -0.294619
 H           -1.165504           -4.855248           -1.533203
 H           -1.404079           -6.972141           -2.791256
 H           -2.582737           -9.146550           -3.123055
 H           -4.468011           -9.788318           -1.678538
 H           -5.249406           -8.276682            0.146281
 H           -5.009641           -6.149964            1.398953
 H           -4.738924           -4.045377            2.683308
 H           -4.302004           -0.185938            5.261467
 H           -3.163607            1.987926            5.800366
 H           -1.282365            2.790388            4.434583
 H           -0.467272            1.480421            2.476942

