102

 C            5.044160           -4.696741            5.462745
 C            6.355804           -4.942190            4.893107
 C            6.691155           -4.458196            3.675133
 C            5.734712           -3.664457            2.904495
 N            6.101073           -3.205185            1.709587
 C            5.197031           -2.438772            0.973685
 C            5.590131           -1.965618           -0.289220
 C            4.717797           -1.180134           -1.057262
 C            5.089568           -0.696949           -2.353371
 C            4.232380            0.077511           -3.102987
 C            4.606332            0.559603           -4.425039
 C            3.760393            1.327943           -5.151712
 C            2.461850            1.692804           -4.631420
 C            2.055012            1.266787           -3.405219
 C            0.719545            1.665643           -2.896108
 C            0.530977            2.905587           -2.372333
 C           -0.775152            3.349706           -1.915223
 C           -0.973824            4.607325           -1.390167
 C           -2.273492            5.037706           -0.968168
 C           -2.489978            6.322282           -0.444560
 C           -3.770559            6.737949           -0.048772
 C           -4.006718            8.050528            0.475790
 C           -5.268417            8.452487            0.852417
 C           -5.525337            9.784305            1.383310
 C           -6.774619           10.162895            1.745477
 C           -7.891921            9.249308            1.615212
 C           -7.709369            7.997608            1.130324
 C           -6.389518            7.534747            0.723808
 C           -6.183870            6.267321            0.227305
 C           -4.880091            5.829448           -0.175365
 C           -4.662713            4.543319           -0.692640
 C           -3.382711            4.129431           -1.094236
 C           -3.150992            2.822819           -1.633679
 C           -1.893770            2.430934           -2.036821
 C           -1.641008            1.110159           -2.586840
 C           -0.399733            0.730669           -2.991448
 C           -0.169432           -0.625729           -3.543346
 C            0.080411           -0.790204           -4.870057
 C            0.305553           -2.104231           -5.429317
 C            0.274692           -3.205359           -4.641730
 C            0.011204           -3.097702           -3.213830
 C           -0.020808           -4.212977           -2.406972
 C           -0.278873           -4.110779           -1.001567
 C           -0.313311           -5.245563           -0.178426
 C           -0.564897           -5.118903            1.198514
 N           -0.592582           -6.274805            1.978072
 C           -0.824577           -6.166704            3.284274
 C           -0.852906           -7.383609            4.095115
 C           -1.083634           -7.314732            5.426196
 C           -1.306786           -6.040311            6.083205
 C           -1.293319           -4.881856            5.381143
 C           -1.054815           -4.881012            3.947741
 C           -1.035577           -3.737813            3.183778
 C           -0.788588           -3.813482            1.774015
 C           -0.757254           -2.684890            0.943941
 C           -0.507548           -2.807906           -0.432833
 C           -0.473368           -1.662712           -1.293126
 C           -0.221868           -1.779531           -2.641969
 C            2.922877            0.430259           -2.576165
 C            2.547486           -0.025677           -1.332426
 C            3.414623           -0.848321           -0.542830
 C            3.018322           -1.337148            0.713213
 C            3.881580           -2.127717            1.482921
 C            3.519471           -2.650763            2.767234
 C            4.414483           -3.408696            3.485075
 C            4.118187           -3.970192            4.792058
 H            4.834562           -5.121264            6.443426
 H            7.057592           -5.532927            5.482318
 H            7.667404           -4.631918            3.218504
 H            6.584047           -2.220543           -0.662571
 H            6.075013           -0.963544           -2.735711
 H            5.587980            0.276746           -4.803695
 H            4.027508            1.693375           -6.142472
 H            1.823566            2.317652           -5.255127
 H            1.359653            3.610767           -2.286941
 H           -0.142126            5.304794           -1.289746
 H           -1.649575            7.009575           -0.347492
 H           -3.157931            8.727892            0.567432
 H           -4.675392           10.459282            1.476559
 H           -6.977631           11.156118            2.143293
 H           -8.874612            9.605856            1.920396
 H           -8.539065            7.299229            1.028145
 H           -7.014106            5.568509            0.127776
 H           -5.502439            3.855167           -0.788310
 H           -3.999160            2.143853           -1.721472
 H           -2.489396            0.427812           -2.666175
 H            0.125956            0.063227           -5.547096
 H            0.503696           -2.170244           -6.498578
 H            0.447857           -4.201822           -5.047168
 H            0.154466           -5.205121           -2.824541
 H           -0.143851           -6.241246           -0.594892
 H           -0.680691           -8.327110            3.572962
 H           -1.109465           -8.211844            6.045259
 H           -1.485197           -6.053759            7.157762
 H           -1.460614           -3.919183            5.863268
 H           -1.209523           -2.758670            3.630917
 H           -0.934488           -1.698436            1.372319
 H           -0.656962           -0.684837           -0.843909
 H            1.568685            0.229050           -0.921220
 H            2.022169           -1.104021            1.091034
 H            2.523160           -2.436286            3.155600
 H            3.126440           -3.786151            5.204441

