102

 C           -7.822872          -10.156635           -0.689108
 C           -8.416532           -9.363268           -1.748914
 C           -8.029258           -8.085574           -1.967227
 C           -6.992889           -7.473889           -1.136301
 N           -6.629811           -6.217758           -1.388223
 C           -5.635991           -5.631800           -0.604569
 C           -5.250462           -4.310047           -0.886413
 C           -4.245698           -3.686175           -0.132812
 C           -3.833907           -2.341154           -0.407156
 C           -2.840047           -1.733832            0.326768
 C           -2.418946           -0.367139            0.062331
 C           -1.427058            0.212647            0.788535
 C           -1.007234            1.610856            0.535943
 C           -1.820377            2.644489            0.879781
 C           -1.447346            4.025450            0.622566
 C           -2.260421            5.078146            0.979405
 C           -1.889863            6.431807            0.691455
 C           -2.710787            7.512597            1.050587
 C           -2.343465            8.833687            0.751577
 C           -3.175033            9.945005            1.108358
 C           -2.805470           11.237739            0.812117
 C           -3.640622           12.377564            1.165769
 C           -3.257345           13.642824            0.870007
 C           -2.002385           13.896756            0.191235
 C           -1.188547           12.873633           -0.163803
 C           -1.548398           11.492258            0.125934
 C           -0.736621           10.438726           -0.229562
 C           -1.102321            9.085242            0.067054
 C           -0.280951            8.005078           -0.290502
 C           -0.647008            6.683785            0.011025
 C            0.189500            5.574444           -0.337823
 C           -0.180597            4.281765           -0.040590
 C            0.666514            3.146682           -0.365553
 C            0.287029            1.871161           -0.087796
 C            1.183221            0.738330           -0.416534
 C            2.347960            0.543200            0.256418
 C            3.240009           -0.551431           -0.091521
 C            4.419764           -0.767899            0.584155
 C            5.298459           -1.840883            0.222846
 C            6.497372           -2.066943            0.914353
 C            7.345675           -3.124326            0.543523
 N            8.523421           -3.318834            1.264810
 C            9.329132           -4.323254            0.925378
 C           10.559458           -4.526116            1.689463
 C           11.398066           -5.541620            1.380216
 C           11.106172           -6.449629            0.286947
 C            9.984346           -6.304574           -0.458271
 C            9.037640           -5.238145           -0.180438
 C            7.881751           -5.047751           -0.900553
 C            6.986620           -3.981589           -0.561519
 C            5.788149           -3.748264           -1.249367
 C            4.933374           -2.699045           -0.875098
 C            3.696326           -2.460202           -1.558542
 C            2.863758           -1.428019           -1.189694
 C            1.598305           -1.178278           -1.866361
 C            0.795104           -0.152958           -1.498229
 C           -0.757614           -0.524164            1.848682
 C           -1.123429           -1.794302            2.140129
 C           -2.184240           -2.464332            1.400262
 C           -2.569817           -3.754322            1.686517
 C           -3.605874           -4.404620            0.939475
 C           -4.001729           -5.721067            1.225791
 C           -5.001213           -6.352778            0.473562
 C           -5.423293           -7.700007            0.718238
 C           -6.397436           -8.274415           -0.064074
 C           -6.863804           -9.638619            0.115229
 H           -8.177173          -11.179371           -0.567537
 H           -9.184872           -9.836318           -2.360674
 H           -8.459255           -7.464224           -2.755309
 H           -5.743955           -3.779621           -1.703741
 H           -4.331804           -1.808725           -1.217577
 H           -2.927057            0.171600           -0.737381
 H           -2.784050            2.465465            1.359223
 H           -3.207752            4.899879            1.487970
 H           -3.649087            7.321261            1.570826
 H           -4.113927            9.739548            1.621952
 H           -4.581341           12.171360            1.674912
 H           -3.873954           14.501914            1.130060
 H           -1.742857           14.933025           -0.020054
 H           -0.242557           13.048961           -0.674811
 H            0.207094           10.614140           -0.745499
 H            0.657148            8.193929           -0.812067
 H            1.131901            5.778870           -0.845762
 H            1.624859            3.355998           -0.843509
 H            2.649058            1.199251            1.073125
 H            4.713090           -0.122907            1.412548
 H            6.786714           -1.426957            1.750848
 H           10.754260           -3.826297            2.504598
 H           12.317828           -5.709561            1.940913
 H           11.820959           -7.247779            0.091127
 H            9.753327           -6.977713           -1.283192
 H            7.623775           -5.700214           -1.735397
 H            5.515190           -4.391951           -2.085823
 H            3.427376           -3.122267           -2.381732
 H            1.321787           -1.851978           -2.677557
 H           -0.159111            0.036367           -1.989939
 H            0.042527           -0.016903            2.387772
 H           -0.632726           -2.357747            2.933993
 H           -2.088324           -4.311492            2.490348
 H           -3.523090           -6.260816            2.043224
 H           -4.953732           -8.254504            1.531514
 H           -6.410682          -10.222434            0.915820

