92

 C           -3.266611           -8.292322            2.264202
 C           -2.386097           -7.280327            2.174771
 C           -2.837924           -6.165935            1.335088
 C           -2.185294           -5.003037            1.043772
 C           -2.809390           -4.028947            0.180200
 C           -2.161245           -2.826940           -0.142003
 C           -2.754732           -1.874307           -0.983390
 C           -4.051437           -2.151483           -1.539842
 C           -4.706836           -3.347144           -1.211597
 C           -4.113243           -4.291940           -0.362907
 C           -4.785767           -5.528759           -0.034118
 C           -4.156551           -6.411405            0.778862
 S           -4.735394           -7.978618            1.329510
 C           -4.659612           -1.205801           -2.447508
 C           -3.970282           -0.085745           -2.770488
 S           -4.464058            1.200496           -3.864562
 C           -2.964917            2.104851           -3.618679
 C           -2.138830            1.483630           -2.759156
 C           -2.662391            0.221934           -2.224323
 C           -2.081418           -0.633302           -1.322530
 C           -0.768942           -0.310808           -0.713535
 C            0.380150           -0.577004           -1.389461
 C            1.684311           -0.243727           -0.841283
 C            2.851839           -0.527834           -1.514489
 C            4.128549           -0.179208           -0.965145
 C            5.325280           -0.472695           -1.638258
 C            6.569816           -0.118917           -1.094338
 C            7.797861           -0.409103           -1.773747
 C            9.014264           -0.060372           -1.230932
 C           10.270695           -0.343526           -1.911124
 C           11.458210            0.001282           -1.357652
 C           11.509978            0.662773           -0.069255
 C           10.371526            0.954066            0.604885
 C            9.065790            0.611533            0.058066
 C            7.897403            0.904649            0.725000
 C            6.620376            0.554363            0.177075
 C            5.424136            0.847716            0.849932
 C            4.179270            0.490501            0.307777
 C            2.952401            0.769483            0.993465
 C            1.736548            0.413408            0.453244
 C            0.484138            0.662623            1.147286
 C           -0.713939            0.311270            0.609424
 C           -1.965606            0.532816            1.372122
 C           -2.360631           -0.361070            2.335154
 C           -1.673829           -1.571922            2.798268
 C           -2.335640           -2.253201            3.749485
 S           -3.863345           -1.473709            4.178488
 C           -3.614009           -0.159158            3.036134
 C           -4.428662            0.896878            2.801109
 C           -4.015966            1.882018            1.827908
 C           -2.776397            1.710351            1.119295
 C           -2.371118            2.702375            0.214034
 C           -3.154813            3.840502           -0.029007
 C           -2.725965            4.854393           -0.963104
 C           -3.508629            5.951896           -1.177298
 C           -3.260841            7.089556           -2.069257
 C           -4.232108            8.018986           -2.056108
 S           -5.544934            7.591676           -0.950150
 C           -4.768044            6.088982           -0.467572
 C           -5.215492            5.165922            0.417554
 C           -4.402704            3.996305            0.665915
 C           -4.806475            3.013812            1.580616
 H           -3.181131           -9.218528            2.809094
 H           -1.416818           -7.243667            2.656452
 H           -1.198062           -4.786723            1.447132
 H           -1.169015           -2.630881            0.269799
 H           -5.694598           -3.547681           -1.627686
 H           -5.774692           -5.714470           -0.449657
 H           -5.648214           -1.422261           -2.848958
 H           -2.823110            3.035970           -4.142856
 H           -1.157483            1.834462           -2.461148
 H            0.354153           -1.050276           -2.373212
 H            2.826791           -1.025878           -2.483945
 H            5.287204           -0.984779           -2.599655
 H            7.744975           -0.915491           -2.737202
 H           10.216101           -0.840720           -2.878802
 H           12.402907           -0.205082           -1.858669
 H           12.491047            0.913672            0.331577
 H           10.394661            1.450870            1.574093
 H            7.921343            1.411047            1.689676
 H            5.462302            1.361030            1.810744
 H            3.005066            1.270403            1.960402
 H            0.539069            1.139746            2.128054
 H           -0.710516           -1.843149            2.381921
 H           -2.055208           -3.166333            4.248949
 H           -5.376344            1.033405            3.319415
 H           -1.421420            2.587941           -0.312651
 H           -1.778747            4.719690           -1.481395
 H           -2.356850            7.130929           -2.664129
 H           -4.295118            8.940703           -2.611575
 H           -6.160232            5.270348            0.948403
 H           -5.750983            3.133523            2.112306

