56

 C           -6.646520            2.784756           -0.392686
 C           -5.790648            2.729084           -1.497050
 C           -4.583326            2.029638           -1.416379
 C           -4.227700            1.382801           -0.222784
 C           -2.931562            0.672932           -0.118145
 C           -1.765701            1.368740           -0.197747
 C           -0.474453            0.712821           -0.079176
 C            0.708618            1.414890           -0.144327
 C            1.973293            0.749720           -0.038703
 C            3.184988            1.455719           -0.102473
 C            4.418035            0.791737           -0.007054
 C            5.661424            1.500927           -0.072979
 C            6.865957            0.840425            0.021120
 C            8.138138            1.546417           -0.044471
 C            9.313201            0.878962            0.050485
 C            9.335443           -0.559911            0.220237
 C            8.181650           -1.266418            0.287056
 C            6.888389           -0.603652            0.190769
 C            5.705023           -1.304456            0.256191
 C            4.440382           -0.637751            0.160385
 C            3.228896           -1.343449            0.226475
 C            1.995745           -0.679319            0.133202
 C            0.752755           -1.387854            0.208082
 C           -0.451892           -0.727277            0.113195
 C           -1.721969           -1.427999            0.199210
 C           -2.908943           -0.773603            0.089533
 C           -4.181824           -1.528336            0.160435
 C           -5.013227           -1.608064           -0.967734
 C           -6.195074           -2.350089           -0.911451
 C           -6.555196           -3.011797            0.267247
 C           -5.731130           -2.927272            1.393802
 C           -4.546498           -2.187269            1.344616
 C           -5.091549            1.432304            0.882561
 C           -6.296017            2.133842            0.794919
 H           -7.585018            3.331871           -0.456753
 H           -6.064232            3.233619           -2.422249
 H           -3.920622            1.983173           -2.278784
 H           -1.767802            2.449311           -0.349178
 H            0.705160            2.496282           -0.278924
 H            3.167955            2.538116           -0.228306
 H            5.629748            2.582723           -0.200382
 H            8.104958            2.627552           -0.172793
 H           10.269188            1.397903            0.002625
 H           10.306903           -1.046452            0.291235
 H            8.181634           -2.348212            0.414692
 H            5.706815           -2.386813            0.382928
 H            3.245873           -2.425889            0.352209
 H            0.783405           -2.468809            0.343035
 H           -1.689934           -2.508139            0.350734
 H           -4.735090           -1.086093           -1.882620
 H           -6.837197           -2.412033           -1.788515
 H           -7.476152           -3.590043            0.307071
 H           -6.011775           -3.441299            2.311614
 H           -3.908443           -2.118845            2.224013
 H           -4.820739            0.918107            1.804013
 H           -6.963446            2.172569            1.654276

