84

 C           -6.170243           -2.138319            2.587620
 C           -4.876773           -1.614147            2.544950
 C           -4.159187           -1.597989            1.337863
 C           -4.763203           -2.114917            0.159296
 C           -6.084742           -2.638164            0.212430
 C           -6.774431           -2.645688            1.435251
 C           -6.681634           -3.151016           -1.009319
 C           -6.002633           -3.140011           -2.181069
 C           -4.648984           -2.616857           -2.266465
 C           -3.937367           -2.602335           -3.476557
 C           -2.639513           -2.090384           -3.522043
 C           -2.027308           -1.591240           -2.370553
 C           -2.707893           -1.595050           -1.142381
 C           -4.034747           -2.107143           -1.088138
 C           -2.110087           -1.089091            0.091210
 C           -0.706983           -0.608947            0.064476
 C            0.320067           -1.499343            0.074300
 C            1.706191           -1.063276            0.072353
 C            2.751153           -1.960339            0.081458
 C            4.112061           -1.513020            0.090422
 C            5.184403           -2.418889            0.108954
 C            6.513686           -1.969174            0.113890
 C            7.616599           -2.883899            0.134914
 C            8.917722           -2.433629            0.135105
 C           10.049430           -3.350343            0.155134
 C           11.322970           -2.888194            0.154522
 C           11.593734           -1.464661            0.134237
 C           10.578772           -0.567662            0.114883
 C            9.189431           -1.004960            0.114336
 C            8.144246           -0.108853            0.095394
 C            6.782482           -0.555004            0.096495
 C            5.710565            0.350591            0.082302
 C            4.380586           -0.098913            0.082134
 C            3.278107            0.815825            0.072725
 C            1.977026            0.364247            0.065346
 C            0.846877            1.277475            0.047138
 C           -0.435127            0.825304            0.043988
 C           -1.565679            1.784489            0.003721
 C           -2.219732            2.012081           -1.165992
 C           -3.290744            2.985575           -1.258909
 C           -3.663297            3.705201           -0.090721
 C           -4.704308            4.672186           -0.156854
 C           -5.346857            4.910258           -1.382177
 C           -4.971100            4.199587           -2.524180
 C           -3.956334            3.242093           -2.468616
 C           -5.070934            5.386724            1.054399
 C           -4.439543            5.148091            2.228617
 C           -3.369660            4.168910            2.327417
 C           -2.710599            3.914721            3.540697
 C           -1.689757            2.964563            3.599772
 C           -1.303834            2.258500            2.458619
 C           -1.936730            2.492044            1.227178
 C           -2.985455            3.452001            1.159576
 C           -2.807218           -1.079095            1.258033
 H           -6.714850           -2.151260            3.531325
 H           -4.422609           -1.214421            3.450159
 H           -7.784851           -3.047506            1.485638
 H           -7.696884           -3.542554           -0.946047
 H           -6.450262           -3.523105           -3.097959
 H           -4.398511           -2.991823           -4.382456
 H           -2.096592           -2.081070           -4.466925
 H           -1.011486           -1.198560           -2.428130
 H            0.130130           -2.574166            0.087744
 H            2.561389           -3.033754            0.081487
 H            4.981028           -3.489569            0.120377
 H            7.399134           -3.951526            0.151307
 H            9.830611           -4.417400            0.170040
 H           12.176383           -3.564560            0.168774
 H           12.635992           -1.148803            0.135482
 H           10.766962            0.505279            0.099668
 H            8.333986            0.964073            0.078710
 H            5.913978            1.421296            0.070788
 H            3.494860            1.884142            0.072608
 H            1.063865            2.347171            0.032936
 H           -1.955644            1.465650           -2.073205
 H           -6.142464            5.650774           -1.442574
 H           -5.476177            4.394133           -3.469890
 H           -3.680744            2.690375           -3.365839
 H           -5.874241            6.119739            0.981219
 H           -4.714773            5.682789            3.137611
 H           -2.996421            4.460069            4.438490
 H           -1.186631            2.771955            4.547093
 H           -0.502459            1.521958            2.527126
 H           -2.366094           -0.679241            2.172857

