116

 C           -3.861114           -7.588893            3.766771
 C           -4.175453           -6.375085            4.497437
 C           -3.862915           -5.160272            3.989269
 C           -3.198638           -5.031585            2.696922
 C           -2.867201           -3.809493            2.169958
 C           -2.201285           -3.696708            0.897840
 C           -1.833253           -2.462429            0.370986
 C           -1.146962           -2.368093           -0.865440
 C           -0.703539           -1.121965           -1.377415
 C           -0.002740           -1.031719           -2.575443
 C            0.220082           -2.236000           -3.346474
 C           -0.204696           -3.465099           -2.853603
 C           -0.869856           -3.568296           -1.606342
 C           -1.258785           -4.820098           -1.068413
 C           -1.898322           -4.906013            0.164420
 C           -2.262830           -6.174670            0.740909
 C           -2.884548           -6.252634            1.960853
 C           -3.249925           -7.531173            2.560680
 C            0.878143           -2.135931           -4.622367
 C            1.288765           -0.927232           -5.118661
 C            1.941724           -0.824309           -6.419490
 C            2.344289            0.370850           -6.908480
 C            2.126916            1.587624           -6.149421
 C            1.531591            1.549209           -4.934996
 C            1.093404            0.291774           -4.339063
 C            0.512117            0.225165           -3.091221
 C            0.390333            1.427523           -2.229509
 C           -0.800764            2.077271           -2.128147
 C           -0.984260            3.213664           -1.241178
 C           -2.188860            3.872977           -1.133406
 C           -2.352004            4.980481           -0.238254
 C           -3.573813            5.662390           -0.120913
 C           -3.718634            6.748369            0.756914
 C           -4.958270            7.456768            0.881393
 C           -5.088076            8.524189            1.741583
 C           -6.339280            9.258141            1.874923
 C           -6.447020           10.306623            2.726227
 C           -5.316617           10.727504            3.529632
 C           -4.129263           10.080563            3.445521
 C           -3.953680            8.946834            2.547996
 C           -2.754759            8.277624            2.447125
 C           -2.596204            7.167456            1.555074
 C           -1.376332            6.483057            1.442034
 C           -1.230606            5.400281            0.560679
 C            0.012454            4.700224            0.432444
 C            0.148084            3.642735           -0.438869
 C            1.408087            2.938984           -0.599532
 C            1.545448            1.895631           -1.461597
 C            2.882543            1.270669           -1.631100
 C            3.842687            1.886065           -2.409496
 C            3.613354            3.157084           -3.089133
 C            4.559379            3.723288           -3.874101
 C            5.845682            3.082289           -4.064287
 C            6.128885            1.915613           -3.440556
 C            5.153178            1.265950           -2.571461
 C            5.452175            0.100172           -1.915580
 C            4.490007           -0.546562           -1.064577
 C            4.808264           -1.714422           -0.376421
 C            3.856233           -2.368470            0.442745
 C            4.160584           -3.564588            1.141953
 C            3.198169           -4.218599            1.903424
 C            3.490490           -5.433071            2.622136
 C            2.524796           -6.085789            3.344344
 C            2.809204           -7.308911            4.087275
 C            1.838146           -7.950755            4.777617
 C            0.478815           -7.442608            4.795458
 C            0.156938           -6.307568            4.132920
 C            1.162536           -5.560926            3.385076
 C            0.860040           -4.396412            2.728849
 C            1.859057           -3.675193            1.982241
 C            1.563207           -2.481782            1.334537
 C            2.539478           -1.803435            0.561584
 C            2.242081           -0.591339           -0.108248
 C            3.174719            0.038902           -0.926149
 H           -4.138544           -8.537819            4.223068
 H           -4.671616           -6.481617            5.461195
 H           -4.098318           -4.240521            4.523851
 H           -3.102146           -2.888725            2.703556
 H           -2.067726           -1.547123            0.914164
 H           -0.922432           -0.221623           -0.799917
 H           -0.023368           -4.373476           -3.428312
 H           -1.037564           -5.726214           -1.632777
 H           -2.020493           -7.076751            0.178250
 H           -3.010339           -8.433664            1.998575
 H            1.039303           -3.055522           -5.184531
 H            2.091902           -1.749183           -6.974889
 H            2.836698            0.459008           -7.875340
 H            2.460275            2.524855           -6.592153
 H            1.355379            2.460765           -4.361983
 H           -1.664964            1.750145           -2.709500
 H           -3.046594            3.562929           -1.730261
 H           -4.424915            5.343196           -0.722171
 H           -5.801433            7.128694            0.273900
 H           -7.180042            8.931423            1.264044
 H           -7.377372           10.862647            2.833080
 H           -5.459041           11.576719            4.196510
 H           -3.270247           10.385581            4.042306
 H           -1.897181            8.581915            3.047053
 H           -0.527228            6.798179            2.048576
 H            0.854033            5.027924            1.043047
 H            2.255977            3.288030           -0.006081
 H            2.647541            3.641471           -2.936174
 H            4.387746            4.671329           -4.380834
 H            6.564035            3.573096           -4.718359
 H            7.090789            1.419990           -3.565982
 H            6.430374           -0.367518           -2.023938
 H            5.805402           -2.143488           -0.468675
 H            5.168282           -3.970759            1.069954
 H            4.508164           -5.817832            2.573439
 H            3.832609           -7.679709            4.064459
 H            2.042803           -8.862213            5.337011
 H           -0.263715           -8.006579            5.356535
 H           -0.862275           -5.916635            4.129634
 H           -0.153857           -3.991600            2.745500
 H            0.558940           -2.060099            1.401354
 H            1.250179           -0.154641            0.024007

