92

 C           -3.020207            9.173253           -2.342837
 C           -1.749757            8.711923           -2.854582
 C           -1.289553            7.471942           -2.548895
 C           -2.059085            6.578443           -1.701180
 C           -1.605821            5.309959           -1.372960
 C           -2.375988            4.447839           -0.546927
 C           -1.923219            3.145234           -0.205489
 C           -2.684584            2.304260            0.591168
 C           -3.967637            2.758024            1.080448
 C           -4.415151            4.031395            0.762942
 C           -3.640779            4.901366           -0.049687
 C           -4.091648            6.205987           -0.386039
 C           -3.331669            7.038472           -1.192962
 C           -3.777785            8.373900           -1.549338
 C           -4.766296            1.858220            1.893110
 C           -4.324760            0.609253            2.186917
 C           -3.042655            0.150624            1.711183
 C           -2.248710            0.959536            0.955272
 C           -0.918835            0.483670            0.503585
 C            0.208747            0.848729            1.168874
 C            1.520712            0.374454            0.760871
 C            2.668441            0.747362            1.424572
 C            3.953064            0.262269            1.015961
 C            5.128950            0.636798            1.685278
 C            6.381471            0.152091            1.278305
 C            7.588047            0.522767            1.956812
 C            8.812331            0.042337            1.549907
 C           10.046765            0.404001            2.233195
 C           11.242926           -0.074918            1.814382
 C           11.326122           -0.960827            0.670718
 C           10.209158           -1.332365            0.000522
 C            8.894968           -0.853806            0.407414
 C            7.747685           -1.225669           -0.256258
 C            6.462342           -0.742202            0.153197
 C            5.286963           -1.117040           -0.515598
 C            4.033805           -0.632520           -0.108533
 C            2.827585           -1.003533           -0.786682
 C            1.603188           -0.520946           -0.380728
 C            0.371644           -0.875191           -1.066590
 C           -0.833639           -0.397843           -0.658162
 C           -2.072665           -0.747171           -1.394211
 C           -2.606555            0.133257           -2.286426
 C           -3.791538           -0.202117           -3.037136
 C           -4.397678           -1.404947           -2.873385
 C           -3.879040           -2.377127           -1.927903
 C           -4.496769           -3.604886           -1.745207
 C           -3.999513           -4.545275           -0.804324
 C           -4.626044           -5.804919           -0.606668
 C           -4.138899           -6.706387            0.327008
 C           -4.767461           -7.997571            0.543894
 C           -4.277715           -8.865119            1.465902
 C           -3.117159           -8.522328            2.256192
 C           -2.493996           -7.327969            2.088976
 C           -2.975302           -6.365290            1.113867
 C           -2.351017           -5.142064            0.923381
 C           -2.840371           -4.210715           -0.031589
 C           -2.209168           -2.954435           -0.236319
 C           -2.698211           -2.045357           -1.161543
 H           -3.344342           10.176284           -2.615358
 H           -1.181025            9.389866           -3.488860
 H           -0.334603            7.110695           -2.928413
 H           -0.645917            4.955595           -1.748051
 H           -0.954442            2.814086           -0.584543
 H           -5.378068            4.381307            1.133850
 H           -5.051572            6.544654            0.002017
 H           -4.738170            8.706702           -1.157849
 H           -5.729267            2.219874            2.251340
 H           -4.919040           -0.080143            2.785528
 H           -2.733662           -0.861830            1.972708
 H            0.159751            1.510546            2.035363
 H            2.621270            1.422059            2.279455
 H            5.068323            1.316211            2.535283
 H            7.512285            1.197653            2.809030
 H            9.968681            1.070880            3.090943
 H           12.171393            0.187677            2.319105
 H           12.313309           -1.312005            0.374200
 H           10.256212           -1.997196           -0.861105
 H            7.795251           -1.898594           -1.112031
 H            5.348284           -1.796519           -1.365451
 H            2.903289           -1.679763           -1.638237
 H            0.449095           -1.539028           -1.929403
 H           -2.156585            1.112326           -2.454003
 H           -4.176772            0.540972           -3.734436
 H           -5.288663           -1.674574           -3.438845
 H           -5.382367           -3.863516           -2.324816
 H           -5.502291           -6.053532           -1.204171
 H           -5.641903           -8.240989           -0.058063
 H           -4.740226           -9.835946            1.635997
 H           -2.764549           -9.251634            2.983611
 H           -1.618843           -7.056264            2.677912
 H           -1.470555           -4.877750            1.508797
 H           -1.321813           -2.714728            0.352797

