104

 C           -6.602705            5.804340            1.149569
 C           -5.483849            4.939488            1.362396
 C           -5.613163            3.585152            1.209093
 C           -6.874853            3.013303            0.828938
 C           -7.031665            1.609719            0.659726
 C           -8.230544            1.027148            0.279871
 C           -9.347137            1.922261            0.069375
 C           -9.217597            3.291882            0.235544
 C           -7.982225            3.873605            0.615785
 C           -7.818492            5.289122            0.787632
 C          -10.647660            1.394089           -0.324373
 C          -10.832482            0.075290           -0.499548
 C           -9.744221           -0.878563           -0.306297
 C          -10.026000           -2.216832           -0.512270
 C           -9.030488           -3.209612           -0.341846
 C           -9.319976           -4.600020           -0.551110
 C           -8.346930           -5.544908           -0.369205
 C           -7.034332           -5.149972            0.032440
 C           -6.734229           -3.828750            0.231812
 C           -7.728079           -2.805725            0.046295
 C           -7.443502           -1.409957            0.244348
 C           -6.037479           -1.135356            0.633659
 C           -5.719206           -1.147352            2.055649
 C           -4.448530           -0.951750            2.477343
 C           -3.365943           -0.719839            1.530798
 C           -2.072772           -0.501366            1.948385
 C           -1.018885           -0.263215            1.007165
 C            0.299414           -0.022955            1.424560
 C            1.323089            0.212220            0.493622
 C            2.673148            0.457407            0.906752
 C            3.672092            0.681990           -0.014048
 C            5.048194            0.922523            0.390645
 C            6.024453            1.126445           -0.534034
 C            7.426066            1.419048           -0.141942
 C            8.419843            0.451479            0.016266
 C            9.733178            0.917121            0.409872
 C            9.996257            2.258307            0.621751
 C            8.987018            3.237727            0.454721
 C            9.256600            4.630943            0.672242
 C            8.270479            5.562856            0.494074
 C            6.964402            5.151906            0.087505
 C            6.683460            3.827800           -0.119961
 C            7.691037            2.817692            0.062398
 C           10.834343           -0.022371            0.600220
 C           10.667281           -1.343140            0.421536
 C            9.373820           -1.887783            0.027000
 C            9.262149           -3.258789           -0.140584
 C            8.034391           -3.856149           -0.521034
 C            7.888921           -5.273544           -0.693479
 C            6.679851           -5.804240           -1.055429
 C            5.549712           -4.954032           -1.267667
 C            5.661564           -3.598208           -1.113774
 C            6.915853           -3.010225           -0.733464
 C            7.054333           -1.604934           -0.562836
 C            8.245540           -1.007160           -0.182151
 C            5.707423            1.135018           -1.956292
 C            4.439732            0.923788           -2.379247
 C            3.358465            0.679837           -1.434157
 C            2.067566            0.450176           -1.852524
 C            1.014231            0.206163           -0.912008
 C           -0.303548           -0.036420           -1.329331
 C           -1.328092           -0.268492           -0.398343
 C           -2.679803           -0.505505           -0.810513
 C           -3.680547           -0.719803            0.110926
 C           -5.059674           -0.944996           -0.292249
 C           -8.424333           -0.429561            0.084598
 H           -6.463534            6.876243            1.281142
 H           -4.531231            5.383266            1.646997
 H           -4.766263            2.917943            1.368436
 H           -6.136549            1.019288            0.849439
 H          -10.074148            3.946270            0.072991
 H           -8.678204            5.935889            0.623067
 H          -11.457437            2.109839           -0.468802
 H          -11.801998           -0.330055           -0.792308
 H          -11.028100           -2.528547           -0.809542
 H          -10.327156           -4.879947           -0.855542
 H           -8.551159           -6.603054           -0.524258
 H           -6.279326           -5.921669            0.176484
 H           -5.727135           -3.539510            0.538816
 H           -6.540189           -1.316933            2.752621
 H           -4.194528           -0.960508            3.537566
 H           -1.823961           -0.503736            3.009613
 H            0.532087           -0.018034            2.489349
 H            2.892231            0.459637            1.974628
 H            5.270839            0.924782            1.458023
 H           10.993573            2.582789            0.921574
 H           10.259189            4.923316            0.980282
 H            8.459470            6.622858            0.656035
 H            6.198710            5.913532           -0.053660
 H            5.681241            3.526194           -0.430905
 H           11.798346            0.395317            0.894022
 H           11.486513           -2.048432            0.563946
 H           10.127029           -3.902297            0.021340
 H            8.756732           -5.909491           -0.529175
 H            6.554560           -6.877811           -1.187241
 H            4.602856           -5.409903           -1.552057
 H            4.805942           -2.942077           -1.272517
 H            6.151411           -1.026271           -0.751694
 H            6.526750            1.314993           -2.652642
 H            4.186987            0.929224           -3.439818
 H            1.819705            0.449648           -2.913975
 H           -0.535817           -0.043536           -2.394198
 H           -2.899268           -0.507870           -1.878313
 H           -5.283235           -0.945975           -1.359420

