96

 C          -14.887811           -1.602892           -2.489318
 C          -15.261638           -0.456878           -1.731670
 C          -14.332825            0.196583           -0.959713
 C          -12.977385           -0.256234           -0.898814
 C          -12.608252           -1.398571           -1.655768
 C          -13.594985           -2.062250           -2.452963
 C          -11.262092           -1.876390           -1.618497
 C          -10.307548           -1.244350           -0.853445
 C           -8.926950           -1.716180           -0.802631
 C           -7.992287           -1.095010           -0.053543
 C           -8.311412            0.082742            0.746303
 C           -9.655020            0.574004            0.725950
 C           -9.999599            1.716009            1.491232
 C           -9.007696            2.354637            2.273625
 C           -7.710668            1.874654            2.287301
 C           -7.351662            0.742194            1.521278
 C           -5.938419            0.296519            1.554747
 C           -5.542096           -0.663113            2.572812
 C           -4.258253           -1.084778            2.657486
 C           -3.239233           -0.596653            1.737957
 C           -1.929442           -1.014370            1.811027
 C           -0.941441           -0.524910            0.895328
 C            0.395797           -0.945731            0.959636
 C            1.354031           -0.457352            0.057511
 C            2.721811           -0.878412            0.115123
 C            3.655430           -0.394210           -0.773815
 C            5.046715           -0.813059           -0.723939
 C            5.956867           -0.328994           -1.609084
 C            7.371432           -0.770036           -1.570756
 C            7.745834           -1.878873           -2.363349
 C            9.044196           -2.355229           -2.343497
 C           10.021940           -1.736444           -1.528054
 C           11.381302           -2.218465           -1.477550
 C           12.308937           -1.613144           -0.688129
 C           11.973805           -0.469246            0.127455
 C           10.656334            0.018033            0.097259
 C           10.284362            1.158029            0.902890
 C           11.224553            1.770307            1.701071
 C           12.571061            1.294440            1.747069
 C           13.542833            1.937540            2.578994
 C           14.836035            1.480111            2.623772
 C           15.225130            0.356596            1.840525
 C           14.311034           -0.276659            1.035112
 C           12.955537            0.174716            0.964422
 C            8.903673            1.628398            0.842591
 C            7.982803            1.025986            0.062011
 C            8.317526           -0.129139           -0.763941
 C            9.662105           -0.617178           -0.736628
 C            5.559844            0.627457           -2.629709
 C            4.275540            1.047665           -2.715438
 C            3.256770            0.560652           -1.795188
 C            1.946853            0.978170           -1.868250
 C            0.959188            0.489454           -0.952007
 C           -0.378131            0.910386           -1.016094
 C           -1.336227            0.422220           -0.113970
 C           -2.704019            0.843556           -0.171252
 C           -3.637691            0.359336            0.717438
 C           -5.028572            0.779950            0.669049
 C          -11.358520            2.200057            1.449147
 C          -12.300021            1.575499            0.691993
 C          -11.980580            0.408438           -0.096517
 C          -10.663922           -0.081381           -0.074004
 H          -15.643451           -2.102913           -3.093300
 H          -16.293351           -0.111551           -1.777116
 H          -14.617466            1.075758           -0.378435
 H          -13.297335           -2.937726           -3.028668
 H          -11.006707           -2.754409           -2.211048
 H           -8.681415           -2.595511           -1.398804
 H           -6.961164           -1.453662           -0.020152
 H           -9.276285            3.230635            2.862759
 H           -6.947187            2.369744            2.889247
 H           -6.313006           -1.023478            3.253681
 H           -3.945214           -1.803302            3.415034
 H           -1.615473           -1.730037            2.570611
 H            0.696436           -1.663899            1.722245
 H            3.007896           -1.596056            0.883854
 H            5.332513           -1.527951            0.047887
 H            6.993197           -2.359104           -2.990282
 H            9.324483           -3.213466           -2.952912
 H           11.639726           -3.081997           -2.089895
 H           13.336226           -1.982206           -0.652378
 H           10.957021            2.630666            2.313899
 H           13.233179            2.795641            3.174247
 H           15.580352            1.964570            3.254083
 H           16.256731            0.012024            1.893614
 H           14.607389           -1.138608            0.434283
 H            8.646440            2.490935            1.458146
 H            6.951545            1.383630            0.021352
 H            6.330307            0.987102           -3.311459
 H            3.961935            1.763925           -3.474889
 H            1.632610            1.692704           -2.628772
 H           -0.678800            1.628053           -1.779154
 H           -2.989968            1.561197           -0.940025
 H           -5.314069            1.495612           -0.102119
 H          -11.605193            3.080925            2.041404
 H          -13.327082            1.945847            0.662681

