96

 C          -13.331052            0.666255           -2.973765
 C          -12.076316            1.297419           -3.064892
 C          -11.053001            0.959522           -2.181663
 C          -11.284819           -0.034012           -1.180131
 C          -12.552048           -0.663908           -1.096952
 C          -13.571081           -0.298938           -2.008768
 C          -12.762623           -1.664529           -0.077517
 C          -11.769605           -1.999717            0.789624
 C          -10.468692           -1.374361            0.728154
 C          -10.238147           -0.398931           -0.255168
 C           -8.950971            0.248851           -0.349618
 C           -7.945901           -0.096654            0.525344
 C           -8.149558           -1.091561            1.530888
 C           -7.097609           -1.464549            2.438098
 C           -5.755522           -0.847245            2.315674
 C           -5.416755            0.243389            3.215349
 C           -4.200919            0.835158            3.150208
 C           -3.198954            0.398539            2.187487
 C           -1.956325            0.986311            2.112529
 C           -0.983721            0.546133            1.156804
 C            0.284905            1.140342            1.071265
 C            1.228220            0.702462            0.128881
 C            2.525675            1.301692            0.031668
 C            3.443857            0.867426           -0.897929
 C            4.760884            1.472588           -1.011720
 C            5.654061            1.035232           -1.937178
 C            6.989228            1.665019           -2.073130
 C            8.099122            1.184225           -1.295504
 C            7.956947            0.078049           -0.401863
 C            9.019966           -0.374026            0.347145
 C            8.889637           -1.501694            1.266288
 C            9.932289           -1.941307            2.001978
 C           11.245145           -1.310607            1.913624
 C           11.413786           -0.203741            1.024640
 C           12.679482            0.426493            0.921418
 C           13.759680           -0.051093            1.701292
 C           13.580661           -1.125984            2.557442
 C           12.328017           -1.758187            2.667643
 C           12.826078            1.542321            0.016856
 C           11.774920            1.984247           -0.724711
 C           10.474150            1.361538           -0.639570
 C           10.305154            0.274806            0.233317
 C            9.357677            1.829043           -1.423714
 C            9.483530            2.928017           -2.329590
 C            8.411743            3.359109           -3.070762
 C            7.148400            2.722114           -2.942169
 C            5.316587           -0.056763           -2.835733
 C            4.103321           -0.653102           -2.766600
 C            3.103176           -0.221273           -1.799643
 C            1.861811           -0.811039           -1.723195
 C            0.889869           -0.373698           -0.765077
 C           -0.377953           -0.968728           -0.678672
 C           -1.321670           -0.530837            0.263851
 C           -2.619039           -1.129512            0.361099
 C           -3.539022           -0.691620            1.287580
 C           -4.858505           -1.291475            1.396799
 C           -7.318983           -2.409021            3.416330
 C           -8.587803           -3.037981            3.530104
 C           -9.602983           -2.711756            2.665844
 C           -9.412779           -1.729912            1.644067
 C           -8.755302            1.259717           -1.385647
 C           -9.740038            1.592820           -2.246273
 H          -14.117421            0.945583           -3.674362
 H          -11.912991            2.052098           -3.832485
 H          -14.544142           -0.783044           -1.944460
 H          -13.740559           -2.142303           -0.024597
 H          -11.935146           -2.757528            1.558680
 H           -6.969960            0.389304            0.464418
 H           -6.173753            0.560361            3.932294
 H           -3.932680            1.656705            3.814549
 H           -1.686498            1.802817            2.782181
 H            0.541601            1.955766            1.747335
 H            2.770298            2.114684            0.715179
 H            5.004284            2.289106           -0.331464
 H            6.980990           -0.405360           -0.324510
 H            7.908838           -1.973924            1.333184
 H            9.829530           -2.782572            2.687775
 H           14.731463            0.433399            1.621540
 H           14.414254           -1.492328            3.155978
 H           12.213466           -2.600752            3.347613
 H           13.803609            2.018832           -0.053026
 H           11.892071            2.828639           -1.407716
 H           10.453035            3.421083           -2.421851
 H            8.510162            4.194209           -3.763018
 H            6.309371            3.084960           -3.535712
 H            6.071467           -0.368831           -3.557099
 H            3.835262           -1.474111           -3.431546
 H            1.591695           -1.626422           -2.393986
 H           -0.634677           -1.784401           -1.354337
 H           -2.863082           -1.944545           -0.320103
 H           -5.101858           -2.109145            0.717871
 H           -6.524669           -2.690221            4.107684
 H           -8.735542           -3.783865            4.309947
 H          -10.575820           -3.200096            2.746945
 H           -7.774485            1.734299           -1.434147
 H           -9.588397            2.346125           -3.019690

