96

 C          -16.447357            0.558728           -1.559581
 C          -15.650684            1.344539           -2.439494
 C          -14.297314            1.455551           -2.236052
 C          -13.659684            0.789343           -1.142950
 C          -14.457003            0.005936           -0.268490
 C          -15.865751           -0.094355           -0.501755
 C          -13.852949           -0.674220            0.833765
 C          -12.499348           -0.581199            1.067434
 C          -11.862397           -1.268375            2.188040
 C          -10.535672           -1.174839            2.416688
 C           -9.668497           -0.381582            1.551065
 C          -10.254324            0.305184            0.442334
 C           -9.431786            1.079133           -0.414417
 C           -8.042859            1.157196           -0.164303
 C           -7.484167            0.479838            0.914491
 C           -6.024287            0.543594            1.154029
 C           -5.552141            1.038865            2.437313
 C           -4.226546            1.118513            2.700594
 C           -3.234664            0.713995            1.713837
 C           -1.883217            0.795943            1.962822
 C           -0.921892            0.395764            0.978414
 C            0.457864            0.479916            1.220604
 C            1.389644            0.084555            0.248284
 C            2.799884            0.163999            0.485553
 C            3.707056           -0.231033           -0.472289
 C            5.140078           -0.164217           -0.239836
 C            6.026551           -0.558609           -1.192726
 C            7.486067           -0.491224           -0.952120
 C            8.301338            0.265831           -1.822419
 C            9.670668            0.365959           -1.593544
 C           10.254907           -0.306790           -0.475381
 C            9.431614           -1.072617            0.387834
 C            8.043507           -1.155891            0.135270
 C           10.041048           -1.743287            1.512329
 C           11.377246           -1.643013            1.745681
 C           12.239554           -0.869507            0.882815
 C           11.671759           -0.208817           -0.219053
 C           12.499998            0.576218           -1.105050
 C           13.852698            0.675130           -0.868467
 C           14.454720            0.010871            0.244517
 C           15.862412            0.117914            0.481405
 C           16.442051           -0.520014            1.549516
 C           15.644400           -1.297077            2.436234
 C           14.292005           -1.413936            2.229848
 C           13.656403           -0.763335            1.126250
 C           11.864966            1.247396           -2.236408
 C           10.539032            1.149425           -2.466900
 C            5.555162           -1.056524           -2.475200
 C            4.229708           -1.137938           -2.738738
 C            3.236740           -0.732988           -1.753166
 C            1.885441           -0.815811           -2.002312
 C            0.923449           -0.415249           -1.018463
 C           -0.456218           -0.499215           -1.260605
 C           -1.388286           -0.103511           -0.288413
 C           -2.798554           -0.181654           -0.525471
 C           -3.705587            0.213707            0.432555
 C           -5.138757            0.149288            0.200269
 C           -8.298493           -0.286175            1.777749
 C          -10.042829            1.763588           -1.529606
 C          -11.380114            1.670009           -1.759414
 C          -12.241769            0.888852           -0.902918
 C          -11.672097            0.213213            0.188916
 H          -17.518312            0.486963           -1.741856
 H          -16.133228            1.852925           -3.272686
 H          -13.685992            2.057366           -2.910330
 H          -16.464733           -0.699077            0.177671
 H          -14.490322           -1.269533            1.486943
 H          -12.508212           -1.863669            2.834448
 H          -10.065160           -1.690699            3.254221
 H           -7.412615            1.755269           -0.821603
 H           -6.300782            1.347304            3.166691
 H           -3.859721            1.488697            3.658128
 H           -1.516012            1.170077            2.918313
 H            0.812321            0.858533            2.179157
 H            3.139733            0.546395            1.447941
 H            5.476561            0.218642            0.723910
 H            7.844486            0.779230           -2.667735
 H            7.412744           -1.748138            0.797297
 H            9.398144           -2.330028            2.167862
 H           11.832558           -2.149999            2.599169
 H           14.490792            1.262953           -1.527747
 H           16.462123            0.715242           -0.203938
 H           17.512156           -0.442958            1.734691
 H           16.125491           -1.794292            3.277021
 H           13.679949           -2.009059            2.909334
 H           12.511685            1.834652           -2.889361
 H           10.069940            1.653531           -3.312378
 H            6.303991           -1.365605           -3.204082
 H            3.863757           -1.509887           -3.695869
 H            1.518694           -1.190772           -2.957586
 H           -0.810654           -0.877703           -2.219154
 H           -3.138798           -0.563039           -1.488060
 H           -5.476090           -0.231236           -0.764009
 H           -7.840283           -0.810240            2.615795
 H           -9.400421            2.355460           -2.181059
 H          -11.836720            2.187703           -2.605747

