96

 C           15.134143           -1.934772           -2.259404
 C           15.436249           -0.934220           -1.316725
 C           14.415508           -0.191095           -0.727381
 C           13.055827           -0.449836           -1.085722
 C           12.762136           -1.460173           -2.035666
 C           13.821237           -2.197754           -2.616556
 C           11.381891           -1.705940           -2.380990
 C           10.378279           -0.986529           -1.810376
 C           10.648141            0.049504           -0.840562
 C           11.982889            0.309011           -0.487433
 C           12.296368            1.337203            0.477835
 C           11.281028            2.069024            1.051866
 C            9.916308            1.823897            0.709668
 C            8.867993            2.589295            1.313678
 C            7.555320            2.351451            0.999590
 C            7.217143            1.330996            0.057443
 C            5.789024            1.090371           -0.246709
 C            5.346500            1.219387           -1.626227
 C            4.047105            1.028529           -1.954664
 C            3.053542            0.689465           -0.945170
 C            1.726508            0.503507           -1.260950
 C            0.763120            0.168397           -0.254397
 C           -0.591317           -0.027460           -0.565387
 C           -1.524975           -0.353288            0.430829
 C           -2.909478           -0.556888            0.125504
 C           -3.818582           -0.875463            1.109797
 C           -5.225581           -1.086925            0.812199
 C           -6.112254           -1.407733            1.792373
 C           -7.543945           -1.628051            1.491047
 C           -8.150423           -2.872280            1.846757
 C           -9.469920           -3.102146            1.553975
 C          -10.260388           -2.106572            0.894732
 C          -11.631788           -2.355164            0.582158
 C          -12.395511           -1.403538           -0.056506
 C          -13.797432           -1.639710           -0.390747
 C          -14.545176           -0.705455           -1.015002
 C          -13.988194            0.590662           -1.388053
 C          -12.618363            0.859957           -1.079919
 C          -12.053630            2.111382           -1.433260
 C          -12.856011            3.076595           -2.087057
 C          -14.182639            2.801236           -2.377916
 C          -14.752696            1.562032           -2.031076
 C          -10.668638            2.362610           -1.111607
 C           -9.914426            1.420792           -0.483808
 C          -10.463111            0.136792           -0.114090
 C          -11.808821           -0.132315           -0.412940
 C           -9.665543           -0.865597            0.548126
 C           -8.288766           -0.653359            0.862471
 C           -5.668031           -1.539049            3.171286
 C           -4.368649           -1.346122            3.498933
 C           -3.375317           -1.010529            2.487951
 C           -2.048571           -0.821942            2.803027
 C           -1.086059           -0.488573            1.795015
 C            0.268214           -0.292916            2.106102
 C            1.202036            0.031074            1.109531
 C            2.586784            0.230860            1.416017
 C            3.496465            0.550633            0.432647
 C            4.902568            0.765603            0.732164
 C            8.211227            0.590459           -0.544625
 C            9.587295            0.815015           -0.232976
 C           13.697460            1.569328            0.818186
 C           14.692190            0.852758            0.253946
 H           15.947370           -2.504554           -2.708245
 H           16.475537           -0.746924           -1.051732
 H           13.593912           -2.973310           -3.345861
 H           11.169053           -2.485669           -3.111825
 H            9.336082           -1.178235           -2.074798
 H           11.500936            2.849587            1.779953
 H            9.135799            3.365807            2.029951
 H            6.753088            2.934090            1.451977
 H            6.094403            1.482062           -2.374242
 H            3.703164            1.123763           -2.984549
 H            1.380252            0.610390           -2.288636
 H           -0.924240            0.073625           -1.598046
 H           -3.228841           -0.454524           -0.911314
 H           -5.540801           -0.987674           -0.226753
 H           -7.543598           -3.630310            2.341437
 H           -9.939497           -4.050164            1.815855
 H          -12.060709           -3.317915            0.859236
 H          -14.214847           -2.608271           -0.113963
 H          -15.591416           -0.887305           -1.262035
 H          -12.420511            4.036808           -2.358273
 H          -14.798152            3.546844           -2.880568
 H          -15.797346            1.369773           -2.269989
 H          -10.246637            3.328884           -1.386599
 H           -8.867433            1.616519           -0.241449
 H           -7.831631            0.302737            0.597699
 H           -6.417882           -1.786900            3.922432
 H           -4.025383           -1.433896            4.529723
 H           -1.701307           -0.925108            3.830839
 H            0.601149           -0.393432            3.138776
 H            2.905509            0.123676            2.452580
 H            5.219679            0.654121            1.769280
 H            7.956812           -0.189211           -1.265755
 H           13.905002            2.348985            1.551695
 H           15.736621            1.029398            0.512349

