96

 C            8.534249            4.295005           -3.075446
 C            9.911248            4.437680           -2.742786
 C           10.537828            3.497586           -1.962129
 C            9.826510            2.360051           -1.466181
 C            8.455038            2.220901           -1.801026
 C            7.824259            3.213567           -2.617221
 C            7.712360            1.098806           -1.321131
 C            8.302233            0.139235           -0.529691
 C            9.700049            0.262701           -0.180426
 C           10.452044            1.357595           -0.640138
 C           11.843911            1.451551           -0.264506
 C           12.436149            0.511184            0.519513
 C           11.689072           -0.624535            1.005339
 C           12.283845           -1.613515            1.824739
 C           11.537399           -2.691836            2.272514
 C           10.180755           -2.820964            1.922332
 C            9.566763           -1.861233            1.119492
 C           10.321903           -0.743052            0.648448
 C            8.161082           -1.957245            0.753045
 C            7.559633           -1.016427           -0.013166
 C            6.115366           -1.141081           -0.330902
 C            5.740357           -1.802989           -1.569802
 C            4.436185           -1.982425           -1.886012
 C            3.372472           -1.516205           -1.006383
 C            2.041719           -1.702138           -1.306753
 C            1.008649           -1.236921           -0.428350
 C           -0.350788           -1.428805           -0.720310
 C           -1.352944           -0.966961            0.147979
 C           -2.743473           -1.161777           -0.136989
 C           -3.720005           -0.706489            0.720860
 C           -5.134242           -0.910756            0.449027
 C           -6.085260           -0.461437            1.309076
 C           -7.527910           -0.701998            1.057586
 C           -8.095102           -1.863490            1.461585
 C           -9.498505           -2.157584            1.209491
 C          -10.288743           -1.185417            0.521897
 C          -11.654604           -1.458039            0.256207
 C          -12.213203           -2.690034            0.672420
 C          -11.432792           -3.622252            1.337632
 C          -10.077248           -3.360720            1.609765
 C          -12.437449           -0.463796           -0.438577
 C          -11.879238            0.711834           -0.833546
 C          -10.489466            1.013875           -0.579532
 C           -9.703394            0.063723            0.094949
 C           -8.306781            0.328196            0.360481
 C           -7.751305            1.519915           -0.047444
 C           -8.528849            2.501388           -0.735226
 C           -7.933433            3.732093           -1.160021
 C           -8.677191            4.674727           -1.824679
 C          -10.054292            4.435994           -2.096031
 C          -10.647099            3.263042           -1.698003
 C           -9.900000            2.258486           -1.006055
 C           -5.710510            0.251140            2.519727
 C           -4.406721            0.461419            2.818177
 C           -3.343727           -0.008961            1.940037
 C           -2.012985            0.187499            2.234257
 C           -0.980354           -0.282431            1.358162
 C            0.379328           -0.094207            1.652274
 C            1.381216           -0.558179            0.785180
 C            2.772071           -0.377063            1.078256
 C            3.748661           -0.837254            0.223334
 C            5.163547           -0.673860            0.518641
 H            8.060471            5.054841           -3.695025
 H           10.455274            5.303304           -3.117769
 H           11.593246            3.606505           -1.707103
 H            6.770051            3.091934           -2.864351
 H            6.658405            1.021312           -1.596167
 H           12.413609            2.308842           -0.630044
 H           13.486138            0.592112            0.800020
 H           13.332749           -1.518311            2.100662
 H           11.997846           -3.451478            2.904015
 H            9.614390           -3.676685            2.286385
 H            7.604987           -2.818660            1.127158
 H            6.543413           -2.144991           -2.222625
 H            4.141066           -2.483000           -2.808209
 H            1.745647           -2.211116           -2.223992
 H           -0.633965           -1.947083           -1.636339
 H           -3.012375           -1.684812           -1.054575
 H           -5.402387           -1.439748           -0.465872
 H           -7.512100           -2.622430            1.986340
 H          -13.261212           -2.898709            0.463946
 H          -11.865293           -4.570757            1.655524
 H           -9.483983           -4.108445            2.133742
 H          -13.486169           -0.683811           -0.637050
 H          -12.475720            1.460886           -1.359083
 H           -6.698732            1.737485            0.145687
 H           -6.878777            3.902090           -0.945334
 H           -8.230369            5.611957           -2.152887
 H          -10.625522            5.198102           -2.623968
 H          -11.702483            3.079618           -1.905960
 H           -6.513564            0.602054            3.167839
 H           -4.111481            0.988048            3.725773
 H           -1.716854            0.706860            3.145716
 H            0.662526            0.419556            2.570909
 H            3.040933            0.134979            2.002098
 H            5.431645           -0.168263            1.446776

