68

 C           -9.897688           -2.387206           -0.916670
 C          -10.461401           -1.219981           -0.467774
 C           -9.666441           -0.246301            0.218126
 C          -10.242348            0.969869            0.705555
 C           -9.465280            1.893447            1.357403
 C           -8.075214            1.657132            1.552227
 C           -7.493279            0.495435            1.095846
 C           -6.043729            0.268738            1.307131
 C           -5.636555           -0.437360            2.511531
 C           -4.325849           -0.656144            2.769591
 C           -3.289179           -0.199690            1.853506
 C           -1.952147           -0.409810            2.104642
 C           -0.944311            0.046214            1.193417
 C            0.421901           -0.151890            1.446668
 C            1.399943            0.298376            0.545951
 C            2.797672            0.111934            0.798852
 C            3.749807            0.557728           -0.090697
 C            5.171887            0.383065            0.158311
 C            6.097626            0.827316           -0.731087
 C            7.550337            0.671509           -0.480781
 C            8.235346           -0.507269           -0.936904
 C            7.567858           -1.551759           -1.653184
 C            8.255535           -2.664274           -2.067552
 C            9.646490           -2.799155           -1.785639
 C           10.313717           -1.812886           -1.104359
 C            9.623184           -0.636851           -0.668154
 C           10.308021            0.408043            0.030263
 C            9.630317            1.526815            0.443394
 C            8.236176            1.660118            0.189122
 C            5.688247            1.485587           -1.961468
 C            4.376256            1.674921           -2.235372
 C            3.339759            1.224733           -1.316055
 C            2.001802            1.414869           -1.577928
 C            0.994420            0.967591           -0.662004
 C           -0.371684            1.168550           -0.913585
 C           -1.349391            0.725478           -0.009078
 C           -2.746075            0.934883           -0.249405
 C           -3.697928            0.496387            0.643931
 C           -5.118220            0.710704            0.416507
 C           -8.283517           -0.496136            0.418413
 C           -7.725134           -1.725018           -0.058929
 C           -8.511501           -2.644757           -0.705402
 H          -10.495178           -3.132896           -1.438749
 H          -11.518685           -1.012011           -0.624693
 H          -11.305887            1.143435            0.549633
 H           -9.894706            2.820219            1.735743
 H           -7.480966            2.411256            2.067832
 H           -6.422513           -0.776621            3.186207
 H           -4.004159           -1.180021            3.669546
 H           -1.631631           -0.930298            3.006880
 H            0.728911           -0.662336            2.359191
 H            3.091669           -0.393142            1.718761
 H            5.466752           -0.114750            1.082118
 H            6.502644           -1.443655           -1.863726
 H            7.753185           -3.459304           -2.616475
 H           10.164152           -3.696502           -2.120964
 H           11.375695           -1.905732           -0.882327
 H           11.373685            0.295942            0.223506
 H           10.143002            2.329577            0.971853
 H            7.722066            2.556629            0.534939
 H            6.473497            1.814367           -2.642171
 H            4.053225            2.169877           -3.151129
 H            1.680261            1.912641           -2.492542
 H           -0.678631            1.679239           -1.825998
 H           -3.039309            1.454341           -1.161528
 H           -5.411628            1.237934           -0.491289
 H           -6.662933           -1.914925            0.103408
 H           -8.092444           -3.582823           -1.066288

