102

 C          -14.044977           -3.650003            0.636627
 C          -13.687284           -2.766416           -0.335729
 C          -12.592280           -1.871462           -0.091150
 C          -11.969186           -0.889702           -0.847391
 C          -12.167663           -0.327536           -2.172016
 C          -13.462385           -0.276764           -2.719255
 C          -13.656705            0.247445           -3.998276
 C          -12.569262            0.724286           -4.737365
 C          -11.282322            0.686621           -4.190483
 C          -11.077752            0.165191           -2.911737
 O          -10.906473           -0.337132           -0.117585
 C          -10.878032           -0.981730            1.128757
 C           -9.838521           -0.524286            2.035584
 C          -10.081502           -0.501921            3.420649
 C           -9.083678           -0.060323            4.291456
 C           -7.846281            0.358141            3.796040
 C           -7.596829            0.335371            2.414172
 C           -6.280873            0.768595            1.892848
 C           -6.252850            1.784368            0.851517
 C           -5.076385            2.213788            0.337639
 C           -3.805087            1.677105            0.803931
 C           -2.601217            2.096837            0.283742
 C           -1.358760            1.564049            0.760227
 C           -0.125589            1.977168            0.231129
 C            1.084731            1.452447            0.712115
 C            2.350762            1.862857            0.179863
 C            3.532566            1.355466            0.673618
 C            4.825952            1.777539            0.158582
 C            5.983370            1.285638            0.675742
 C            7.308173            1.723383            0.180931
 C            7.658739            3.082502            0.206939
 C            8.921466            3.487159           -0.234373
 C            9.839755            2.547523           -0.705981
 C            9.489427            1.186322           -0.742139
 C           10.430896            0.193102           -1.229572
 C           10.326615           -1.008097           -1.913783
 C            9.222488           -1.739936           -2.465133
 C            9.468809           -2.912632           -3.111583
 C           10.812971           -3.430545           -3.255298
 C           11.891119           -2.766101           -2.754507
 C           11.681616           -1.526810           -2.062589
 C           12.529736           -0.608603           -1.461364
 C           13.961757           -0.509948           -1.242341
 C           14.582235            0.749576           -1.156681
 C           15.959375            0.835145           -0.947383
 C           16.724393           -0.328886           -0.817702
 C           16.109122           -1.582285           -0.897759
 C           14.732511           -1.678616           -1.108984
 O           11.779190            0.462044           -0.952222
 C            8.222938            0.774835           -0.296183
 C            5.952984            0.303348            1.749041
 C            4.774192           -0.127157            2.255372
 C            3.505214            0.377951            1.749911
 C            2.300070           -0.039452            2.267400
 C            1.059358            0.478438            1.771552
 C           -0.173172            0.060673            2.296567
 C           -1.383252            0.579362            1.809733
 C           -2.647358            0.151103            2.330590
 C           -3.830213            0.670149            1.852519
 C           -5.120373            0.241093            2.368263
 C           -8.595722           -0.103699            1.534081
 C          -11.888067           -1.929838            1.185033
 C          -12.298776           -2.881673            2.177265
 C          -13.344025           -3.709888            1.901888
 H          -14.870375           -4.344850            0.488679
 H          -14.195650           -2.720638           -1.296384
 H          -14.312777           -0.636137           -2.141314
 H          -14.660083            0.289448           -4.419406
 H          -12.724545            1.126201           -5.736806
 H          -10.437140            1.064526           -4.764105
 H          -10.077009            0.136897           -2.480860
 H          -11.048824           -0.815336            3.810907
 H           -9.272462           -0.036733            5.364563
 H           -7.075309            0.710375            4.480027
 H           -7.207288            2.187090            0.510734
 H           -5.042357            2.976229           -0.440552
 H           -2.568720            2.848517           -0.504634
 H           -0.106199            2.718496           -0.567272
 H            2.357590            2.592335           -0.629784
 H            4.833208            2.500418           -0.657175
 H            6.948290            3.818408            0.581103
 H            9.191685            4.542606           -0.207627
 H           10.827777            2.859726           -1.043992
 H            8.219679           -1.331404           -2.360456
 H            8.658474           -3.495120           -3.547878
 H           10.931392           -4.373855           -3.786057
 H           12.907599           -3.136175           -2.867398
 H           13.980358            1.653219           -1.252470
 H           16.439027            1.810903           -0.885101
 H           17.797718           -0.258798           -0.651628
 H           16.704719           -2.487542           -0.790045
 H           14.254489           -2.656015           -1.158694
 H            7.953863           -0.281524           -0.313234
 H            6.907126           -0.065012            2.127181
 H            4.736154           -0.861828            3.059755
 H            2.264798           -0.773892            3.071929
 H           -0.192253           -0.679250            3.096503
 H           -2.651369           -0.601981            3.118256
 H           -5.122471           -0.524585            3.144357
 H           -8.411583           -0.128850            0.459277
 H          -11.756279           -2.922061            3.118887
 H          -13.681234           -4.450386            2.625955

