102

 C           14.673412           -3.964460           -1.293739
 C           14.899211           -2.709484           -0.816283
 C           13.789513           -1.946875           -0.321027
 C           13.667598           -0.673382            0.213795
 C           14.583351            0.419174            0.492378
 C           14.155134            1.752956            0.368215
 C           15.049923            2.796591            0.611272
 C           16.370767            2.519468            0.979483
 C           16.795640            1.193469            1.112984
 C           15.907604            0.142523            0.875403
 O           12.322900           -0.417360            0.517292
 C           11.590198           -1.560675            0.160685
 C           10.163219           -1.473441            0.411211
 C            9.674270           -0.666887            1.455578
 C            8.303949           -0.589869            1.697715
 C            7.404032           -1.310502            0.895791
 C            5.949325           -1.219245            1.150759
 C            5.454501           -1.648169            2.449642
 C            4.134823           -1.578268            2.743187
 C            3.171431           -1.066637            1.778128
 C            1.828012           -0.974693            2.066446
 C            0.893741           -0.468354            1.104543
 C           -0.478671           -0.371058            1.384897
 C           -1.382533            0.121326            0.429683
 C           -2.787592            0.217249            0.695880
 C           -3.665097            0.689277           -0.255529
 C           -5.096062            0.772639           -0.009055
 C           -5.947840            1.237065           -0.961943
 C           -7.406959            1.312948           -0.725985
 C           -8.142941            0.140152           -0.493291
 C           -9.516166            0.209483           -0.262977
 C          -10.169102            1.455609           -0.253990
 C          -11.593028            1.530027            0.020210
 C          -12.432793            2.435298            0.650733
 C          -12.225133            3.705838            1.284527
 C          -13.294312            4.354394            1.823698
 C          -14.627824            3.793111            1.771208
 C          -14.870626            2.586800            1.188404
 C          -13.773981            1.862158            0.613325
 C          -13.670504            0.642894           -0.038462
 C          -14.600916           -0.404313           -0.422680
 C          -15.720475           -0.677838            0.382776
 C          -16.624014           -1.671896            0.001682
 C          -16.417538           -2.398661           -1.175434
 C          -15.300697           -2.132372           -1.974686
 C          -14.391628           -1.140463           -1.602540
 O          -12.337022            0.421028           -0.412272
 C           -9.433875            2.628258           -0.501654
 C           -8.060995            2.554815           -0.737683
 C           -5.443119            1.672068           -2.254883
 C           -4.120005            1.611376           -2.532917
 C           -3.164597            1.113421           -1.553172
 C           -1.818531            1.034545           -1.828695
 C           -0.890364            0.536980           -0.857492
 C            0.481469            0.444246           -1.136847
 C            1.383493           -0.051986           -0.183316
 C            2.784722           -0.155313           -0.462060
 C            3.664867           -0.643923            0.477294
 C            5.090230           -0.746933            0.208947
 C            7.890196           -2.110953           -0.149463
 C            9.261619           -2.194131           -0.391346
 C           12.448649           -2.520624           -0.353736
 C           12.262789           -3.852202           -0.854582
 C           13.345944           -4.542019           -1.307656
 H           15.488612           -4.573568           -1.681231
 H           15.889195           -2.259068           -0.804059
 H           13.124382            1.962720            0.080489
 H           14.717768            3.829100            0.511592
 H           17.067401            3.335646            1.163950
 H           17.822343            0.978412            1.405926
 H           16.235427           -0.889368            0.995852
 H           10.376194           -0.103194            2.072610
 H            7.927865            0.036493            2.506735
 H            6.181946           -2.031111            3.165093
 H            3.751674           -1.902886            3.710455
 H            1.446573           -1.287366            3.038255
 H           -0.849768           -0.685379            2.360217
 H           -3.148830           -0.097099            1.674864
 H           -5.460302            0.451242            0.966708
 H           -7.638494           -0.826172           -0.498425
 H          -10.092853           -0.700416           -0.087777
 H          -11.217085            4.112105            1.323252
 H          -13.177341            5.320016            2.313436
 H          -15.433525            4.374091            2.217415
 H          -15.867188            2.154217            1.136107
 H          -15.876219           -0.121697            1.306478
 H          -17.491484           -1.882818            0.625603
 H          -17.125171           -3.172248           -1.468845
 H          -15.140046           -2.698301           -2.891326
 H          -13.518746           -0.928594           -2.221022
 H           -9.938582            3.594121           -0.518755
 H           -7.491522            3.464234           -0.928546
 H           -6.166309            2.037408           -2.983669
 H           -3.726760            1.930736           -3.498006
 H           -1.430031            1.347788           -2.797557
 H            0.852793            0.761550           -2.111070
 H            3.139500            0.164615           -1.441598
 H            5.444244           -0.422321           -0.769655
 H            7.192996           -2.670654           -0.772504
 H            9.633329           -2.810599           -1.209767
 H           11.261315           -4.276487           -0.852821
 H           13.245306           -5.554290           -1.696304

