96

 C           11.889407            5.578712            1.415434
 C           12.182853            4.621463            0.506818
 C           11.254026            3.519374            0.272420
 N           11.542034            2.581113           -0.620096
 C           10.618791            1.548757           -0.809258
 C           10.897871            0.545302           -1.749224
 C            9.967365           -0.487815           -1.945247
 N           10.236783           -1.487580           -2.881626
 C            9.334554           -2.446666           -3.054334
 C            9.580340           -3.506360           -4.025627
 C            8.663415           -4.482833           -4.209879
 C            7.422466           -4.509494           -3.461804
 C            7.114521           -3.559486           -2.539412
 C            5.840215           -3.599422           -1.788868
 C            5.507235           -4.823274           -1.075670
 C            4.347218           -4.926974           -0.385522
 C            3.398761           -3.823571           -0.327953
 C            2.217015           -3.911281            0.373204
 C            1.304954           -2.807601            0.431773
 C            0.098850           -2.884585            1.145914
 C           -0.782004           -1.793237            1.202469
 C           -2.016703           -1.859799            1.926116
 C           -2.871999           -0.781462            1.979268
 C           -4.123891           -0.834061            2.716259
 C           -4.956077            0.241517            2.765870
 C           -6.206942            0.188399            3.555620
 C           -7.500162            0.431892            2.900692
 N           -7.566701            0.733023            1.610560
 C           -8.823745            0.943464            1.040803
 C           -8.911028            1.262193           -0.323954
 C          -10.173447            1.476791           -0.897328
 N          -10.258145            1.794977           -2.255652
 C          -11.462051            1.996018           -2.774739
 C          -11.605858            2.330414           -4.189091
 C          -12.832226            2.541250           -4.717809
 C          -14.035440            2.442129           -3.907506
 C          -13.977285            2.132022           -2.592829
 C          -12.688472            1.890815           -1.949787
 N          -12.631822            1.588042           -0.659545
 C          -11.373680            1.370311           -0.090724
 C          -11.286695            1.048796            1.271905
 C          -10.023292            0.835094            1.845774
 N           -9.933731            0.521145            3.202784
 C           -8.728483            0.325581            3.723911
 C           -8.600079            0.005023            5.141201
 C           -7.377605           -0.190880            5.683988
 C           -6.172995           -0.100843            4.883735
 C           -4.617488            1.469735            2.065293
 C           -3.461044            1.566418            1.368156
 C           -2.527240            0.451832            1.290882
 C           -1.347122            0.536070            0.587171
 C           -0.442630           -0.573371            0.518006
 C            0.760931           -0.497686           -0.199656
 C            1.641097           -1.589808           -0.257763
 C            2.872598           -1.523128           -0.986353
 C            3.734438           -2.596817           -1.031178
 C            4.989614           -2.537916           -1.762792
 C            8.068632           -2.468630           -2.284247
 N            7.800000           -1.530526           -1.386200
 C            8.734874           -0.514821           -1.184794
 C            8.458300            0.484319           -0.238101
 C            9.386942            1.517352           -0.044778
 N            9.105491            2.515823            0.891543
 C            9.995474            3.485684            1.053662
 C            9.748865            4.554672            2.017566
 C           10.654501            5.544906            2.182277
 H           12.571706            6.409664            1.603125
 H           13.103448            4.624004           -0.081448
 H           11.829559            0.568261           -2.324905
 H           10.520378           -3.462858           -4.580449
 H            8.826964           -5.284589           -4.932881
 H            6.729708           -5.327110           -3.673654
 H            6.226637           -5.640720           -1.106361
 H            4.089235           -5.837539            0.154751
 H            1.952794           -4.825548            0.903808
 H           -0.157439           -3.807329            1.665654
 H           -2.265422           -2.790690            2.434664
 H           -4.371314           -1.768612            3.219165
 H           -8.004088            1.340817           -0.933833
 H          -10.687188            2.397180           -4.776934
 H          -12.959268            2.792151           -5.772356
 H          -14.989548            2.627702           -4.404046
 H          -14.866244            2.049013           -1.963082
 H          -12.193296            0.965848            1.881222
 H           -9.524401           -0.064444            5.719387
 H           -7.257129           -0.427214            6.743055
 H           -5.221414           -0.274641            5.392094
 H           -5.330396            2.293267            2.111718
 H           -3.194873            2.480627            0.837776
 H           -1.076615            1.453262            0.064418
 H            1.017122            0.424825           -0.720373
 H            3.116217           -0.594865           -1.503432
 H            5.230046           -1.604950           -2.275649
 H            7.528549            0.456613            0.341154
 H            8.813937            4.505642            2.581066
 H           10.487884            6.352031            2.897719

