100

 C            9.999300            0.179796            7.660707
 C            8.696585           -0.446948            7.531717
 C            8.053018           -0.483367            6.342684
 C            8.660901            0.111904            5.153041
 N            7.998372            0.055298            4.000476
 C            8.572268            0.621069            2.862222
 C            7.856133            0.553333            1.653594
 C            8.391248            1.109631            0.485617
 C            7.700883            1.077246           -0.770418
 C            8.265565            1.639231           -1.890879
 C            9.590061            2.253653           -1.766099
 N           10.257897            2.305650           -0.614697
 C            9.685440            1.748448            0.527390
 C           10.401377            1.817504            1.737362
 C            9.865024            1.264586            2.905551
 C           10.547924            1.305689            4.167165
 C            9.976087            0.745677            5.284064
 C           10.608655            0.747722            6.592748
 C           10.210943            2.830722           -2.956608
 C            9.571125            2.793555           -4.147747
 C            8.256785            2.199606           -4.275385
 C            7.624160            1.656256           -3.202151
 C            6.267272            1.075421           -3.342506
 C            6.157173           -0.271660           -3.877602
 C            4.943370           -0.847005           -4.044812
 C            3.717800           -0.142247           -3.694782
 C            2.477001           -0.715377           -3.858285
 C            1.280836           -0.009842           -3.504970
 C            0.011514           -0.585682           -3.668452
 C           -1.153236            0.115122           -3.318416
 C           -2.454839           -0.459350           -3.485805
 C           -3.591724            0.236161           -3.139083
 C           -4.919522           -0.330160           -3.316028
 C           -6.031328            0.371808           -2.973615
 C           -7.389150           -0.181572           -3.192789
 C           -7.941230           -0.162076           -4.434979
 C           -9.260809           -0.705810           -4.677671
 C           -9.985723           -1.256696           -3.677552
 C           -9.450265           -1.306977           -2.318579
 N          -10.198422           -1.859630           -1.365614
 C           -9.707589           -1.911754           -0.062132
 C          -10.511787           -2.500470            0.931331
 C          -10.060360           -2.567804            2.254284
 C          -10.837189           -3.153434            3.309057
 C          -10.347787           -3.190261            4.592670
 C          -11.078853           -3.762209            5.711175
 C          -10.548784           -3.769429            6.957568
 C           -9.234630           -3.209233            7.213855
 C           -8.501322           -2.662583            6.217370
 C           -9.021547           -2.622410            4.851161
 N           -8.272993           -2.072342            3.897998
 C           -8.763275           -2.029660            2.593263
 C           -7.958387           -1.443712            1.598960
 C           -8.409336           -1.377234            0.275420
 C           -7.630328           -0.795346           -0.779052
 C           -8.119084           -0.748899           -2.063155
 C           -5.920218            1.705487           -2.405838
 C           -4.705825            2.276258           -2.226112
 C           -3.480455            1.576757           -2.587529
 C           -2.239310            2.148563           -2.420676
 C           -1.043450            1.445160           -2.779334
 C            0.225968            2.021864           -2.617889
 C            1.390515            1.322000           -2.970257
 C            2.691914            1.899565           -2.810255
 C            3.828868            1.203279           -3.155208
 C            5.156158            1.776115           -2.995181
 H           10.464086            0.174421            8.646155
 H            8.258457           -0.886222            8.428334
 H            7.072854           -0.947212            6.214288
 H            6.879716            0.062633            1.641443
 H            6.719113            0.597279           -0.812978
 H           11.377442            2.308043            1.747370
 H           11.524750            1.789547            4.214127
 H           11.586275            1.221852            6.675776
 H           11.197976            3.280081           -2.829006
 H           10.021166            3.213533           -5.048084
 H            7.789309            2.210457           -5.260297
 H            7.079882           -0.792057           -4.133130
 H            4.844319           -1.856027           -4.445460
 H            2.379207           -1.723597           -4.260775
 H           -0.071556           -1.593871           -4.074214
 H           -2.523854           -1.466263           -3.897419
 H           -4.988566           -1.334267           -3.735139
 H           -7.405052            0.263460           -5.283772
 H           -9.644242           -0.655964           -5.697390
 H          -10.980515           -1.679808           -3.831204
 H          -11.489194           -2.900909            0.652525
 H          -11.818403           -3.564054            3.066004
 H          -12.063719           -4.180321            5.504846
 H          -11.088126           -4.193483            7.803996
 H           -8.862770           -3.246586            8.238175
 H           -7.509823           -2.234495            6.378868
 H           -6.980030           -1.043385            1.876174
 H           -6.642690           -0.393456           -0.536117
 H           -6.842783            2.221264           -2.140200
 H           -4.606103            3.277314           -1.805901
 H           -2.140821            3.153265           -2.009500
 H            0.308993            3.030248           -2.212423
 H            2.760354            2.909258           -2.405229
 H            5.225172            2.786066           -2.589954

