100

 C          -19.310392            0.568122           -0.371179
 C          -18.374190           -0.373430           -0.638443
 C          -16.966474           -0.117837           -0.382401
 C          -15.974076           -1.034631           -0.634129
 C          -14.603621           -0.714483           -0.355951
 C          -13.555282           -1.611517           -0.591994
 C          -12.229250           -1.244602           -0.296739
 N          -11.215969           -2.170671           -0.544018
 C           -9.957139           -1.837616           -0.268551
 C           -8.896739           -2.811386           -0.526617
 C           -7.605270           -2.507714           -0.268538
 C           -7.229114           -1.207071            0.270770
 C           -5.792132           -0.937429            0.498630
 C           -5.364126           -0.552937            1.834484
 C           -4.063498           -0.276659            2.088987
 C           -3.055389           -0.351622            1.040561
 C           -1.731188           -0.061545            1.280081
 C           -0.752864           -0.141696            0.236047
 C            0.598308            0.155323            0.471335
 C            1.548447            0.075634           -0.558658
 C            2.929403            0.377304           -0.328708
 C            3.856783            0.290675           -1.343111
 C            5.263252            0.575395           -1.115376
 C            6.175815            0.471907           -2.119080
 C            7.610767            0.723815           -1.862394
 C            8.301300            1.734498           -2.651652
 C            9.602235            2.027340           -2.427285
 C           10.356818            1.330204           -1.385515
 N           11.632509            1.653660           -1.185518
 C           12.349119            0.991644           -0.188058
 C           13.696499            1.344224            0.013682
 C           14.452612            0.703822            1.002780
 C           15.830730            1.016984            1.249680
 C           16.528834            0.355332            2.231535
 C           17.925997            0.617424            2.534638
 C           18.564412           -0.067201            3.513592
 C           17.874332           -1.080978            4.289329
 C           16.573881           -1.372782            4.059106
 C           15.831447           -0.668464            3.014623
 N           14.553917           -0.984253            2.815357
 C           13.840774           -0.319155            1.818796
 C           12.493644           -0.670584            1.619526
 C           11.739604           -0.032947            0.627862
 C           10.364885           -0.354551            0.380970
 C            9.665556            0.303563           -0.602521
 C            8.270548            0.036785           -0.891200
 C            5.754808            0.089613           -3.456901
 C            4.454425           -0.184084           -3.718346
 C            3.438322           -0.106671           -2.677172
 C            2.115068           -0.400688           -2.919373
 C            1.132435           -0.320605           -1.878428
 C           -0.219274           -0.618068           -2.112922
 C           -1.171013           -0.535515           -1.083727
 C           -2.554443           -0.830994           -1.310148
 C           -3.479643           -0.745113           -0.293021
 C           -4.887486           -1.033646           -0.512351
 C           -8.177510           -0.270519            0.539325
 C           -9.580739           -0.534331            0.284324
 C          -10.574170            0.383540            0.530661
 C          -11.942725            0.061707            0.249466
 C          -12.990858            0.959153            0.484229
 C          -14.316469            0.591379            0.190956
 N          -15.328615            1.516770            0.443418
 C          -16.588912            1.184874            0.172942
 C          -17.645306            2.160097            0.440344
 C          -18.937501            1.858420            0.178381
 H          -20.368508            0.389502           -0.558684
 H          -18.641877           -1.346058           -1.050838
 H          -16.204399           -2.017768           -1.046831
 H          -13.750526           -2.603769           -1.005629
 H           -9.204066           -3.778190           -0.931992
 H           -6.804233           -3.226473           -0.449519
 H           -6.123440           -0.504571            2.614513
 H           -3.728722            0.010037            3.086188
 H           -1.398786            0.238063            2.273944
 H            0.915387            0.452627            1.470872
 H            3.230287            0.677497            0.674879
 H            5.558068            0.875273           -0.109638
 H            7.726390            2.251159           -3.421860
 H           10.141340            2.786167           -2.999410
 H           14.139566            2.121883           -0.613016
 H           16.305452            1.787332            0.640432
 H           18.433964            1.380846            1.945589
 H           19.611297            0.119220            3.750307
 H           18.443787           -1.596700            5.063047
 H           16.028638           -2.129732            4.626406
 H           12.049651           -1.446242            2.248178
 H            9.891930           -1.127118            0.989179
 H            7.772592           -0.733856           -0.301445
 H            6.520643            0.023288           -4.229101
 H            4.126299           -0.473439           -4.716947
 H            1.786739           -0.704201           -3.913302
 H           -0.536001           -0.917426           -3.111886
 H           -2.859683           -1.125430           -2.314087
 H           -5.190973           -1.318873           -1.519667
 H           -7.914008            0.708101            0.942218
 H          -10.344019            1.368121            0.940700
 H          -12.795550            1.952010            0.896607
 H          -17.335268            3.122060            0.853533
 H          -19.738180            2.573045            0.371072

