100

 C            8.119565            4.327740            4.595619
 C            9.501042            4.646342            4.287492
 C           10.164400            4.002210            3.299633
 C            9.496316            2.965854            2.514772
 N           10.178251            2.349422            1.550386
 C            9.543318            1.366015            0.794062
 C           10.286039            0.730336           -0.218003
 C            9.695802           -0.261201           -1.006246
 C           10.415005           -0.934632           -2.050677
 C            9.800852           -1.903872           -2.804625
 C           10.463497           -2.621664           -3.880927
 C            9.805459           -3.569124           -4.590254
 C            8.422809           -3.898536           -4.295398
 C            7.748502           -3.268348           -3.306714
 C            8.402786           -2.230593           -2.509639
 N            7.705612           -1.624862           -1.552597
 C            8.317848           -0.634073           -0.785371
 C            7.563572            0.010665            0.222389
 C            6.140598           -0.349861            0.433242
 C            5.847323           -1.470078            1.312849
 C            4.565667           -1.827576            1.561769
 C            3.449566           -1.110946            0.959558
 C            2.141478           -1.459662            1.209630
 C            1.053257           -0.750223            0.604355
 C           -0.283546           -1.098070            0.854501
 C           -1.341717           -0.396113            0.255785
 C           -2.710604           -0.739040            0.505174
 C           -3.741492           -0.042076           -0.085367
 C           -5.135494           -0.377839            0.160180
 C           -6.137211            0.321766           -0.433801
 C           -7.562041           -0.017052           -0.200647
 C           -8.250047            0.541213            0.902062
 N           -7.569182            1.422278            1.741665
 C           -8.204437            1.949802            2.784221
 C           -7.478718            2.874821            3.654809
 C           -8.088939            3.423281            4.730027
 C           -9.471455            3.115059            5.047495
 C          -10.193740            2.270538            4.273528
 C           -9.602235            1.644898            3.102480
 C          -10.283164            0.782305            2.279363
 C           -9.632231            0.197004            1.141299
 C          -10.291690           -0.683128            0.279006
 C           -9.614407           -1.233646           -0.824588
 N          -10.317404           -2.107124           -1.652388
 C           -9.698275           -2.642869           -2.703329
 C          -10.438539           -3.563176           -3.564468
 C           -9.839613           -4.124976           -4.639830
 C           -8.457317           -3.830770           -4.967900
 C           -7.724784           -2.984309           -4.204829
 C           -8.302888           -2.348542           -3.033013
 C           -7.604576           -1.488013           -2.218921
 C           -8.233234           -0.895973           -1.073854
 C           -5.842830            1.433864           -1.323465
 C           -4.560889            1.783940           -1.581111
 C           -3.445226            1.064767           -0.980967
 C           -2.136982            1.409812           -1.235370
 C           -1.049006            0.698651           -0.631704
 C            0.287804            1.045858           -0.882825
 C            1.345826            0.344844           -0.282826
 C            2.714486            0.691151           -0.528748
 C            3.745289           -0.001764            0.066642
 C            5.138680            0.344322           -0.167001
 C            8.165853            1.001293            1.023904
 C            7.469331            1.680858            2.077389
 C            8.100996            2.648722            2.822404
 C            7.452063            3.375988            3.900119
 H            7.644241            4.882098            5.404079
 H            9.983154            5.423288            4.881899
 H           11.203735            4.220009            3.046298
 H           11.326025            1.026115           -0.375433
 H           11.454792           -0.655284           -2.227128
 H           11.501987           -2.366040           -4.090701
 H           10.289075           -4.112779           -5.401212
 H            7.950428           -4.672456           -4.901075
 H            6.708617           -3.495430           -3.061186
 H            6.691235           -2.009061            1.742492
 H            4.327999           -2.667185            2.214633
 H            1.907156           -2.289845            1.875448
 H           -0.503821           -1.927847            1.525719
 H           -2.918014           -1.568597            1.180977
 H           -5.346217           -1.199270            0.844648
 H           -6.440893            3.088889            3.389483
 H           -7.563091            4.113152            5.390832
 H           -9.901769            3.589131            5.929096
 H          -11.232952            2.032422            4.499566
 H          -11.325753            0.523514            2.469864
 H          -11.336084           -0.955936            0.448148
 H          -11.476773           -3.765017           -3.293931
 H          -10.376041           -4.814754           -5.292254
 H           -8.035580           -4.315767           -5.847495
 H           -6.685548           -2.754342           -4.440760
 H           -6.560564           -1.238802           -2.428370
 H           -6.686062            1.973865           -1.752976
 H           -4.322442            2.618809           -2.239753
 H           -1.902280            2.238355           -1.903059
 H            0.508146            1.874528           -1.555345
 H            2.921623            1.520350           -1.205003
 H            5.348578            1.170932           -0.845378
 H            6.427993            1.410786            2.274181
 H            6.414223            3.126377            4.121991

