96

 C           14.003525            0.909069            2.282880
 C           14.558641            1.399197            1.127982
 C           13.774761            1.489896           -0.064804
 C           12.419035            1.069765           -0.048243
 C           11.855898            0.560960            1.174126
 C           12.647356            0.489417            2.306179
 C           10.445789            0.130579            1.192730
 C            9.863255           -0.367683            2.343632
 C            8.502930           -0.771278            2.361650
 C            7.735563           -0.670970            1.229429
 C            8.298207           -0.165515            0.015583
 C            9.660791            0.234039           -0.009955
 C           10.230364            0.732499           -1.234115
 C            9.442307            0.801963           -2.368292
 C            8.080859            0.410337           -2.342981
 C            7.509643           -0.055835           -1.180182
 C            6.077608           -0.437456           -1.171988
 C            5.734747           -1.801569           -1.540760
 C            4.441308           -2.199354           -1.576817
 C            3.358388           -1.281217           -1.251055
 C            2.037529           -1.666317           -1.297127
 C            0.984447           -0.750317           -0.971094
 C           -0.365437           -1.131457           -1.019794
 C           -1.387725           -0.226016           -0.694263
 C           -2.769089           -0.602490           -0.743389
 C           -3.765336            0.292875           -0.423383
 C           -5.171541           -0.073190           -0.481416
 C           -6.142026            0.823226           -0.164738
 C           -7.578791            0.469564           -0.247393
 C           -8.265840            0.691828           -1.419687
 C           -9.634625            0.342114           -1.527869
 C          -10.314562           -0.232537           -0.469718
 C          -11.732085           -0.618432           -0.590059
 C          -12.435213           -0.428670           -1.765888
 C          -13.798548           -0.809704           -1.876654
 C          -14.449725           -1.376821           -0.810613
 C          -13.759158           -1.588875            0.423878
 C          -12.395797           -1.211408            0.540431
 C          -11.709637           -1.431824            1.785824
 C          -12.392898           -2.004225            2.843359
 C          -13.757421           -2.377228            2.721556
 C          -14.428980           -2.177503            1.542084
 C          -10.291738           -1.045130            1.904747
 C           -9.593060           -1.235181            3.082877
 C           -8.225839           -0.870927            3.191710
 C           -7.567699           -0.322826            2.120498
 C           -8.252332           -0.105155            0.883865
 C           -9.622387           -0.461479            0.771247
 C           -5.796395            2.173033            0.251342
 C           -4.501238            2.560912            0.319477
 C           -3.419397            1.646393           -0.019584
 C           -2.098150            2.029877            0.031527
 C           -1.045817            1.116312           -0.303022
 C            0.304040            1.498778           -0.258483
 C            1.326043            0.593579           -0.584838
 C            2.706980            0.973558           -0.546500
 C            3.702937            0.079166           -0.869737
 C            5.107350            0.456311           -0.847483
 C           11.639999            1.163210           -1.254267
 C           12.227371            1.659535           -2.403921
 C           13.583571            2.080091           -2.413606
 C           14.343454            1.999599           -1.274175
 H           14.589892            0.833478            3.198172
 H           15.597380            1.724070            1.099536
 H           12.242808            0.107555            3.244859
 H           10.440597           -0.459344            3.265320
 H            8.083119           -1.159198            3.289252
 H            6.687816           -0.975060            1.236312
 H            9.853678            1.166597           -3.311528
 H            7.493043            0.489399           -3.258124
 H            6.552604           -2.479695           -1.783436
 H            4.169125           -3.218668           -1.850390
 H            1.764860           -2.681591           -1.584714
 H           -0.625336           -2.147543           -1.316228
 H           -3.014791           -1.621001           -1.043637
 H           -5.417944           -1.089201           -0.790358
 H           -7.765802            1.134921           -2.281628
 H          -10.139965            0.535267           -2.476108
 H          -11.954152            0.019106           -2.636972
 H          -14.312879           -0.643202           -2.822715
 H          -15.494724           -1.673243           -0.885131
 H          -11.893980           -2.182029            3.797388
 H          -14.256051           -2.823586            3.581428
 H          -15.475162           -2.460240            1.438095
 H          -10.081376           -1.672298            3.955580
 H           -7.712633           -1.036492            4.138490
 H           -6.515462           -0.044210            2.194759
 H           -6.613963            2.848707            0.501787
 H           -4.226838            3.568995            0.630101
 H           -1.824867            3.042253            0.328822
 H            0.563708            2.516222            0.033567
 H            2.952111            1.994814           -0.255143
 H            5.352167            1.480450           -0.565007
 H           11.657669            1.739333           -3.331104
 H           14.004629            2.466582           -3.341326
 H           15.384011            2.320162           -1.270539

