92

 C            9.539599           -6.332708           -1.773382
 C           10.409357           -5.308445           -1.815397
 C            9.857766           -4.035063           -1.340504
 C           10.475547           -2.821123           -1.255590
 C            9.743825           -1.679366           -0.759738
 C           10.349415           -0.418182           -0.659670
 C            9.640320            0.697215           -0.188196
 C            8.262705            0.547559            0.196404
 C            7.661203           -0.715870            0.106025
 C            8.371130           -1.830928           -0.362384
 C            7.743143           -3.129795           -0.455297
 C            8.472087           -4.170087           -0.926976
 S            7.960767           -5.838344           -1.147593
 C            7.529627            1.710005            0.668410
 C            6.103436            1.592370            1.046909
 C            5.789945            1.321946            2.440825
 C            4.502476            1.211135            2.844449
 C            3.399028            1.355229            1.904252
 C            2.084666            1.245678            2.299567
 C            1.010984            1.391033            1.361313
 C           -0.332409            1.286674            1.755211
 C           -1.375227            1.429368            0.826361
 C           -2.750163            1.329115            1.217438
 C           -3.766393            1.468341            0.298570
 C           -5.165703            1.371036            0.684036
 C           -6.155569            1.509113           -0.236285
 C           -7.582973            1.418150            0.145108
 C           -8.278461            2.518173            0.541640
 S           -7.693831            4.169870            0.672705
 C           -9.261215            4.772245            1.229365
 C          -10.177245            3.792139            1.315885
 C           -9.673843            2.468657            0.933587
 C          -10.341892            1.279516            0.915951
 C           -9.655718            0.079525            0.500393
 C           -8.274171            0.140674            0.105600
 C           -7.628304           -1.033916           -0.306163
 C           -8.298441           -2.265561           -0.330864
 C           -7.625110           -3.472693           -0.754720
 C           -8.317347           -4.637463           -0.748386
 S           -7.747587           -6.237609           -1.204667
 C           -9.308843           -6.990855           -0.853170
 C          -10.214380           -6.097183           -0.418809
 C           -9.707361           -4.723302           -0.336259
 C          -10.367239           -3.597119            0.062086
 C           -9.675675           -2.329565            0.074523
 C          -10.324963           -1.153696            0.478176
 C           -5.841346            1.757530           -1.634257
 C           -4.553724            1.858478           -2.039717
 C           -3.450399            1.720084           -1.098280
 C           -2.135991            1.821403           -1.495134
 C           -1.062281            1.683464           -0.555433
 C            0.280757            1.790930           -0.948867
 C            1.323708            1.651771           -0.019203
 C            2.698103            1.763067           -0.408453
 C            3.714481            1.622941            0.510398
 C            5.113215            1.735401            0.127553
 C            8.184441            2.900041            0.746671
 S            7.544897            4.445500            1.284711
 C            9.084696            5.274248            1.016728
 C           10.030711            4.442540            0.547085
 C            9.575547            3.059709            0.369081
 C           10.281810            1.986527           -0.089381
 H            9.690001           -7.360226           -2.062738
 H           11.434211           -5.365237           -2.160753
 H           11.513109           -2.686627           -1.555049
 H           11.392386           -0.301683           -0.955385
 H            6.617066           -0.835060            0.406114
 H            6.704153           -3.233450           -0.145315
 H            6.624305            1.218526            3.135049
 H            4.249796            1.012689            3.886032
 H            1.832947            1.045614            3.340944
 H           -0.570492            1.092272            2.800869
 H           -2.974176            1.140114            2.267355
 H           -5.389424            1.188428            1.735622
 H           -9.372106            5.821835            1.450016
 H          -11.205212            3.915936            1.633055
 H          -11.387608            1.208968            1.209264
 H           -6.580542           -0.989663           -0.613862
 H           -6.582938           -3.410590           -1.065044
 H           -9.423344           -8.052556           -1.000989
 H          -11.237283           -6.319833           -0.141437
 H          -11.409193           -3.626669            0.374805
 H          -11.371192           -1.198722            0.781886
 H           -6.675819            1.861899           -2.328109
 H           -4.300805            2.048670           -3.082788
 H           -1.883916            2.010511           -2.538483
 H            0.518912            1.986878           -1.994238
 H            2.921825            1.963970           -1.456225
 H            5.336212            1.942595           -0.919627
 H            9.158629            6.327896            1.233447
 H           11.049797            4.718507            0.306348
 H           11.325108            2.075582           -0.386206

