92

 C           -9.173941           -1.893068           -6.430907
 C           -8.219693           -1.401265           -5.621904
 C           -8.615292           -1.317566           -4.212293
 C           -7.881348           -0.874765           -3.150517
 C           -8.463039           -0.875170           -1.829328
 C           -9.811932           -1.335575           -1.645373
 C          -10.371586           -1.322844           -0.360410
 C           -9.638741           -0.871289            0.747127
 C          -10.234341           -0.855927            2.063574
 C           -9.490366           -0.413036            3.105142
 S           -9.967604           -0.283600            4.793387
 C           -8.389521            0.348636            5.282896
 C           -7.547415            0.458700            4.241343
 C           -8.120752            0.039978            2.957964
 C           -7.529486            0.037119            1.720870
 C           -6.131211            0.497259            1.553770
 C           -5.910612            1.902621            1.250582
 C           -4.653468            2.387495            1.120466
 C           -3.490259            1.524743            1.277868
 C           -2.205571            2.007457            1.168615
 C           -1.072220            1.144471            1.325945
 C            0.241530            1.628976            1.228814
 C            1.343597            0.772700            1.379173
 C            2.689152            1.256856            1.290147
 C            3.763935            0.408790            1.437989
 C            5.134420            0.890592            1.366263
 C            6.183324            0.039958            1.514320
 C            7.583438            0.522103            1.469363
 C            8.215342            0.937864            2.612948
 C            7.687034            0.985507            3.980370
 C            8.562656            1.439390            4.893350
 S           10.119902            1.857534            4.165651
 C            9.586263            1.406412            2.551286
 C           10.292351            1.463952            1.396926
 C            9.653642            1.032721            0.174672
 C           10.346513            1.075983           -1.044193
 C            9.745070            0.652221           -2.237074
 C            8.394246            0.162528           -2.207837
 C            7.769806           -0.286671           -3.429383
 C            8.464970           -0.235793           -4.602464
 C            8.022906           -0.636540           -5.942021
 C            8.946059           -0.453721           -6.901807
 S           10.448707            0.222726           -6.257438
 C            9.826099            0.271159           -4.613080
 C           10.458602            0.699205           -3.493794
 C            7.700310            0.128435           -0.989200
 C            8.298039            0.554234            0.206595
 C            5.961726           -1.379695            1.740499
 C            4.703973           -1.873888            1.818654
 C            3.541018           -1.007716            1.679393
 C            2.256240           -1.493135            1.772572
 C            1.123061           -0.626952            1.632118
 C           -0.190444           -1.110089            1.736199
 C           -1.292588           -0.252879            1.591220
 C           -2.637685           -0.732645            1.704706
 C           -3.712642            0.116064            1.561613
 C           -5.082267           -0.354386            1.695791
 C           -8.285267           -0.419322            0.569213
 C           -7.729450           -0.431588           -0.718896
 C          -10.566955           -1.802711           -2.786485
 C           -9.974096           -1.786912           -4.004806
 S          -10.651607           -2.297116           -5.545716
 H           -9.139206           -2.057707           -7.495550
 H           -7.232640           -1.081288           -5.933056
 H           -6.859866           -0.517545           -3.270911
 H          -11.395363           -1.670062           -0.217558
 H          -11.261289           -1.198730            2.178868
 H           -8.218525            0.588737            6.319665
 H           -6.524701            0.817748            4.288090
 H           -6.789414            2.538056            1.137700
 H           -4.469373            3.438248            0.895232
 H           -2.023183            3.061760            0.959953
 H            0.409103            2.688347            1.034732
 H            2.842711            2.319842            1.103476
 H            5.288250            1.956541            1.195121
 H            6.668427            0.670374            4.180458
 H            8.427414            1.568642            5.954831
 H           11.320284            1.820418            1.354217
 H           11.371971            1.446503           -1.062388
 H            6.747703           -0.659445           -3.386332
 H            7.028697           -1.039635           -6.092064
 H            8.875253           -0.661816           -7.956997
 H           11.480083            1.076032           -3.503360
 H            6.671071           -0.238452           -0.973489
 H            6.840148           -2.017058            1.845097
 H            4.519168           -2.934779            1.989237
 H            2.073453           -2.551951            1.956668
 H           -0.358009           -2.168706            1.934469
 H           -2.790869           -1.792047            1.911140
 H           -5.235300           -1.410519            1.920219
 H           -6.701977           -0.088410           -0.863037
 H          -11.586756           -2.152121           -2.633500

