86

 C           10.970207            0.871079           -3.678515
 C           11.316891            0.397936           -2.460057
 C           10.340470            0.311653           -1.377713
 C           10.670116           -0.162594           -0.138681
 C            9.695566           -0.249742            0.926450
 C           10.049820           -0.731535            2.173768
 C            9.084343           -0.807710            3.211499
 C            9.256507           -1.253689            4.520375
 S            7.793735           -1.145155            5.362955
 C            6.897472           -0.523403            4.071526
 C            7.713415           -0.382901            2.950267
 C            7.365298            0.102857            1.653693
 C            5.959979            0.510159            1.422690
 C            5.592084            1.884622            1.724775
 C            4.316277            2.305804            1.560707
 C            3.279244            1.403863            1.078547
 C            1.977111            1.817274            0.910146
 C            0.968174            0.918666            0.433340
 C           -0.361069            1.333035            0.255125
 C           -1.341915            0.443822           -0.210519
 C           -2.702889            0.852858           -0.392886
 C           -3.658501           -0.028510           -0.846914
 C           -5.043874            0.371971           -1.033020
 C           -5.972885           -0.510457           -1.484777
 C           -7.381980           -0.107072           -1.698756
 C           -8.330950           -0.179664           -0.685595
 C           -8.002361           -0.672189            0.633449
 C           -8.934641           -0.741806            1.631354
 C           -8.606414           -1.245098            2.962220
 C           -9.538805           -1.298139            3.940219
 C          -10.900471           -0.856309            3.693373
 C          -11.266901           -0.387871            2.478892
 C          -10.308352           -0.305529            1.380423
 C          -10.658291            0.162666            0.144692
 C           -9.701163            0.245803           -0.936455
 C          -10.075646            0.720543           -2.180510
 C           -9.126886            0.792493           -3.233887
 C           -9.320496            1.230905           -4.542284
 S           -7.871210            1.119863           -5.407503
 C           -6.953502            0.506199           -4.127098
 C           -7.751305            0.370835           -2.992299
 C           -5.604212           -1.883482           -1.792446
 C           -4.327250           -2.303405           -1.634708
 C           -3.289319           -1.401166           -1.154390
 C           -1.986967           -1.814312           -0.988100
 C           -0.977389           -0.915506           -0.512057
 C            0.351615           -1.329929           -0.333940
 C            1.332728           -0.440617            0.132093
 C            2.693126           -0.850098            0.316492
 C            3.648378            0.030974            0.772672
 C            5.032318           -0.371102            0.965776
 C            8.330029            0.178871            0.655877
 C            8.023066            0.676987           -0.666201
 C            8.971187            0.749784           -1.648876
 C            8.664660            1.257409           -2.983192
 C            9.612631            1.313601           -3.945958
 H           11.689778            0.936274           -4.493123
 H           12.331264            0.065013           -2.244333
 H           11.685788           -0.490665            0.082018
 H           11.066621           -1.059335            2.381889
 H           10.169459           -1.617025            4.956305
 H            5.849226           -0.280107            4.131548
 H            6.377616            2.548676            2.085631
 H            4.023693            3.331717            1.784033
 H            1.685858            2.842388            1.137903
 H           -0.636322            2.362738            0.482165
 H           -2.966510            1.884770           -0.161240
 H           -5.310833            1.402992           -0.799807
 H           -6.973059           -0.992510            0.809056
 H           -7.581926           -1.575591            3.131542
 H           -9.303706           -1.671021            4.935742
 H          -11.606941           -0.918604            4.519566
 H          -12.284804           -0.056159            2.278456
 H          -11.677798            0.488533           -0.061131
 H          -11.096164            1.045711           -2.374186
 H          -10.240963            1.590194           -4.965575
 H           -5.906139            0.263720           -4.202724
 H           -6.390458           -2.547669           -2.151285
 H           -4.034369           -3.328502           -1.861270
 H           -1.695865           -2.839336           -1.216316
 H            0.626822           -2.359701           -0.560574
 H            2.956716           -1.882178            0.085704
 H            5.298834           -1.402873            0.735452
 H            6.996747            0.998233           -0.856943
 H            7.642919            1.588062           -3.168075
 H            9.393613            1.689212           -4.944088

