84

 C           11.464252            2.928935            0.636404
 C           12.236515            1.879122            0.134381
 C           11.662182            0.615491           -0.076856
 C           10.285889            0.415678            0.221901
 C            9.508995            1.491592            0.731954
 C           10.113252            2.742803            0.935839
 C            8.105109            1.263961            1.016517
 C            7.524055            0.053703            0.804147
 C            6.076638           -0.125460            1.075172
 C            5.672946           -0.536683            2.409898
 C            4.361894           -0.677334            2.717273
 C            3.321167           -0.419097            1.731149
 C            1.983326           -0.529566            2.037196
 C            0.972102           -0.269389            1.055457
 C           -0.394379           -0.371892            1.359802
 C           -1.375839           -0.113575            0.390001
 C           -2.773507           -0.221312            0.686571
 C           -3.728881            0.025701           -0.273994
 C           -5.149793           -0.105638            0.006379
 C           -6.078696            0.126023           -0.957655
 C           -7.526319           -0.050498           -0.686065
 C           -8.114474           -1.253255           -0.920366
 C           -9.518600           -1.479226           -0.635546
 C          -10.129796           -2.723180           -0.861248
 C          -11.480829           -2.908157           -0.561068
 C          -12.246327           -1.864369           -0.036687
 C          -11.664637           -0.607987            0.197173
 C          -10.288336           -0.409471           -0.102173
 C           -9.670451            0.874226            0.137776
 C          -10.446319            1.941642            0.670411
 C           -9.839237            3.186586            0.900437
 C           -8.487399            3.374600            0.606734
 C           -7.717843            2.332445            0.085569
 C           -8.291403            1.073395           -0.152694
 C          -11.851133            1.708458            0.962835
 C          -12.427742            0.503337            0.740100
 C           -5.674946            0.536210           -2.292731
 C           -4.363861            0.674998           -2.600683
 C           -3.323047            0.415536           -1.614807
 C           -1.985300            0.524966           -1.921226
 C           -0.973897            0.263915           -0.939658
 C            0.392421            0.366082           -1.244169
 C            1.374036            0.107915           -0.274196
 C            2.771563            0.216236           -0.570680
 C            3.726994           -0.029306            0.390411
 C            5.147785            0.104172            0.110565
 C            8.296493           -1.076342            0.295097
 C            7.730005           -2.342592            0.079078
 C            8.506590           -3.390657           -0.419252
 C            9.858449           -3.201406           -0.712148
 C           10.458380           -1.949112           -0.504448
 C            9.675431           -0.875624            0.005113
 C           11.862755           -1.714222           -0.797503
 C           12.432562           -0.502080           -0.596146
 H           11.921156            3.905535            0.795396
 H           13.288343            2.042156           -0.094183
 H            9.524985            3.570977            1.327173
 H            7.526987            2.104996            1.402379
 H            6.460236           -0.722335            3.140635
 H            4.042186           -0.986765            3.712317
 H            1.664990           -0.815666            3.039550
 H           -0.698089           -0.657720            2.366735
 H           -3.064852           -0.509665            1.696427
 H           -5.442340           -0.404006            1.013428
 H           -7.542212           -2.089718           -1.324403
 H           -9.547290           -3.546865           -1.270207
 H          -11.943062           -3.879246           -0.737161
 H          -13.298352           -2.026243            0.191688
 H          -10.424290            4.008853            1.309382
 H           -8.026003            4.345439            0.787270
 H           -6.662733            2.499104           -0.136556
 H          -12.423301            2.542204            1.369982
 H          -13.481021            0.329292            0.960382
 H           -6.462249            0.722727           -3.023160
 H           -4.044159            0.983543           -3.596028
 H           -1.667047            0.810834           -2.923695
 H            0.696111            0.651453           -2.251261
 H            3.062886            0.503740           -1.580803
 H            5.440154            0.402248           -0.896647
 H            6.674865           -2.510123            0.300385
 H            8.050849           -4.367146           -0.582504
 H           10.448841           -4.028507           -1.103218
 H           12.440200           -2.552667           -1.187095
 H           13.485514           -0.326728           -0.816950

