116

 C          -11.328097           -5.026426            4.065340
 C           -9.942235           -5.457797            4.065399
 C           -9.022250           -4.830572            3.296324
 C           -9.390754           -3.702630            2.447917
 C           -8.470397           -3.049006            1.669303
 C           -8.847051           -1.932953            0.839939
 C           -7.918125           -1.257306            0.055449
 C           -8.295283           -0.162381           -0.763104
 C           -9.673706            0.248878           -0.775893
 C          -10.613391           -0.441189            0.031083
 C          -10.230366           -1.511649            0.831322
 C          -11.174540           -2.217306            1.659178
 C          -10.785875           -3.271510            2.444909
 C          -11.729975           -3.989484            3.294457
 C          -10.068140            1.335893           -1.593914
 C           -9.148884            2.011451           -2.388218
 C           -9.550456            3.117437           -3.219902
 C           -8.648298            3.784770           -4.007099
 C           -9.038327            4.911472           -4.847585
 C           -8.131231            5.553445           -5.619933
 C           -6.741707            5.134479           -5.637470
 C           -6.322359            4.096917           -4.876510
 C           -7.249249            3.369973           -4.016062
 C           -6.839700            2.323984           -3.229703
 C           -7.760393            1.606472           -2.384767
 C           -7.356341            0.540576           -1.573926
 C           -5.932415            0.124263           -1.553190
 C           -5.518673           -0.919855           -2.478070
 C           -4.230686           -1.334080           -2.515170
 C           -3.224542           -0.755414           -1.634779
 C           -1.910873           -1.165968           -1.661556
 C           -0.933364           -0.586485           -0.788073
 C            0.407913           -0.999038           -0.806387
 C            1.356658           -0.421886            0.052551
 C            2.728736           -0.833736            0.041979
 C            3.653039           -0.260304            0.886789
 C            5.048923           -0.668463            0.885274
 C            5.947238           -0.093576            1.727277
 C            7.373146           -0.503306            1.742933
 C            7.799841           -1.515742            2.608928
 C            6.900089           -2.186089            3.512936
 C            7.331748           -3.179747            4.353586
 C            6.426137           -3.859172            5.273433
 C            6.866897           -4.846430            6.087429
 C            8.258883           -5.256987            6.069219
 C            9.146992           -4.656978            5.242915
 C            8.733309           -3.585789            4.343247
 C            9.615652           -2.962895            3.499104
 C            9.190559           -1.912742            2.608911
 C           10.089274           -1.283591            1.754935
 C            9.671508           -0.252062            0.878928
 C           10.589566            0.389420            0.008996
 C           10.183296            1.405131           -0.848796
 C           11.104432            2.059294           -1.742576
 C           10.692565            3.059712           -2.584621
 C           11.612621            3.723786           -3.501847
 C           11.188147            4.708954           -4.326618
 C            9.801208            5.136930           -4.319275
 C            8.902629            4.557808           -3.489686
 C            9.296041            3.486547           -2.581005
 C            8.397219            2.881262           -1.740842
 C            8.798163            1.820769           -0.851870
 C            7.890501            1.193009           -0.005576
 C            8.290872            0.151746            0.870303
 C            5.533536            0.951678            2.650902
 C            4.244657            1.363194            2.690139
 C            3.238084            0.781200            1.812827
 C            1.923927            1.190632            1.840400
 C            0.946428            0.609854            0.968288
 C           -0.395275            1.021788            0.987076
 C           -1.343710            0.444792            0.128281
 C           -2.716050            0.856377            0.139133
 C           -3.639772            0.284640           -0.707040
 C           -5.035217            0.694436           -0.706846
 H          -12.023921           -5.567460            4.705045
 H           -9.676727           -6.299074            4.703760
 H           -7.978727           -5.143597            3.284757
 H           -7.425537           -3.359817            1.659671
 H           -6.872209           -1.572090            0.064790
 H          -11.653914           -0.118141            0.016211
 H          -12.211908           -1.884794            1.642848
 H          -12.766720           -3.654940            3.282649
 H          -11.114617            1.640370           -1.594715
 H          -10.600152            3.409982           -3.203480
 H          -10.085061            5.212280           -4.825483
 H           -8.410401            6.397535           -6.248868
 H           -6.057993            5.683907           -6.282761
 H           -5.283082            3.769064           -4.879752
 H           -5.794129            2.007866           -3.228404
 H           -6.281713           -1.346059           -3.129897
 H           -3.904272           -2.112967           -3.204181
 H           -1.585358           -1.943649           -2.352233
 H            0.719140           -1.780957           -1.498823
 H            3.025620           -1.617148           -0.655307
 H            5.346797           -1.450627            0.186269
 H            5.852124           -1.877989            3.511227
 H            5.384586           -3.538591            5.276200
 H            6.198894           -5.360580            6.776713
 H            8.555547           -6.060418            6.741930
 H           10.195261           -4.952235            5.219361
 H           10.666732           -3.250218            3.480079
 H           11.137290           -1.582657            1.752889
 H           11.631741            0.071696            0.021002
 H           12.143213            1.731110           -1.730100
 H           12.650318            3.392157           -3.495152
 H           11.865687            5.209139           -5.017196
 H            9.517024            5.935238           -5.003129
 H            7.858464            4.868461           -3.472215
 H            7.351500            3.189025           -1.725809
 H            6.843375            1.503938           -0.009793
 H            6.297331            1.381324            3.299672
 H            3.918250            2.142973            3.378213
 H            1.598515            1.968895            2.530554
 H           -0.706543            1.803379            1.679949
 H           -3.013203            1.638680            0.837661
 H           -5.333553            1.474563           -0.005682

