116

 C          -16.380290            0.082058           -3.757359
 C          -15.332007            0.377912           -4.716636
 C          -14.053689            0.557061           -4.310767
 C          -13.688345            0.459318           -2.901762
 C          -12.398341            0.638633           -2.473280
 C          -12.049942            0.541159           -1.078700
 C          -10.744365            0.724002           -0.635233
 C          -10.414498            0.626529            0.740518
 C           -9.087282            0.810593            1.203848
 C           -8.775558            0.711051            2.556241
 C           -7.430132            0.889118            3.039814
 C           -7.127001            0.789431            4.373504
 C           -8.188318            0.507869            5.336585
 C           -9.477507            0.328346            4.904637
 C           -9.822376            0.418544            3.509951
 C          -11.127671            0.235025            3.065609
 C          -11.454561            0.332146            1.690237
 C          -12.782173            0.146756            1.228216
 C          -13.095337            0.245408           -0.122903
 C          -14.441148            0.061579           -0.603389
 C          -14.743233            0.161572           -1.936874
 C          -16.101474           -0.020924           -2.437269
 C           -7.843702            0.430002            6.751325
 C           -6.570997            0.614896            7.170997
 C           -5.509766            0.881255            6.222066
 C           -5.765741            0.957043            4.890298
 C           -4.660554            1.209057            3.934274
 C           -4.295964            2.591066            3.667338
 C           -3.273197            2.882592            2.829895
 C           -2.510092            1.829596            2.174034
 C           -1.455942            2.110751            1.334400
 C           -0.712100            1.063270            0.699574
 C            0.368348            1.339799           -0.152769
 C            1.088239            0.305250           -0.770634
 C            2.189015            0.574565           -1.647552
 C            2.885210           -0.446996           -2.254284
 C            3.991211           -0.187539           -3.162665
 C            4.658990           -1.207945           -3.761407
 C            5.763164           -0.956271           -4.718701
 C            5.505814           -0.880526           -6.050211
 C            6.566309           -0.615396           -7.000258
 C            7.839726           -0.431948           -6.581994
 C            8.185733           -0.509794           -5.167637
 C            9.475626           -0.331613           -4.736849
 C            9.821536           -0.421204           -3.342456
 C           11.127549           -0.239097           -2.899074
 C           11.455121           -0.334972           -1.523917
 C           12.783414           -0.150963           -1.062695
 C           13.097025           -0.247898            0.288318
 C           14.443412           -0.065392            0.768105
 C           14.745830           -0.163477            2.101598
 C           16.104600            0.017668            2.601323
 C           16.383622           -0.083240            3.921514
 C           15.334944           -0.375344            4.881551
 C           14.056194           -0.552802            4.476573
 C           13.690653           -0.457415            3.067440
 C           12.400250           -0.635242            2.639895
 C           12.051483           -0.540113            1.245165
 C           10.745538           -0.721558            0.802789
 C           10.415137           -0.626164           -0.573126
 C            9.087520           -0.808905           -1.035186
 C            8.775080           -0.711042           -2.387660
 C            7.429159           -0.888013           -2.869807
 C            7.125064           -0.789469           -4.203410
 C            4.295811           -2.590032           -3.492891
 C            3.273443           -2.881549           -2.655030
 C            2.510217           -1.828603           -1.999096
 C            1.456543           -2.109752           -1.159052
 C            0.712880           -1.062246           -0.523788
 C           -0.367486           -1.338767            0.328375
 C           -1.087615           -0.304166            0.946217
 C           -2.189133           -0.573471            1.821973
 C           -2.885837            0.448094            2.428342
 C           -3.993191            0.188656            3.334975
 H          -17.390602           -0.052164           -4.140889
 H          -15.614928            0.448867           -5.765827
 H          -13.256332            0.779679           -5.018846
 H          -11.600805            0.860893           -3.181984
 H           -9.952464            0.946399           -1.350426
 H           -8.303132            1.033710            0.479817
 H           -6.652044            1.106148            2.304495
 H          -10.277849            0.113584            5.612478
 H          -11.919906            0.012138            3.779846
 H          -13.563824           -0.076501            1.953970
 H          -15.215893           -0.160164            0.130092
 H          -16.877819           -0.242414           -1.705752
 H           -8.651964            0.220029            7.451074
 H           -6.302508            0.565316            8.225557
 H           -4.501300            1.012031            6.614052
 H           -4.873888            3.370250            4.163801
 H           -2.987014            3.913349            2.621491
 H           -1.163833            3.141874            1.135915
 H            0.653481            2.375511           -0.337521
 H            2.461368            1.614593           -1.826878
 H            4.260161            0.852424           -3.349188
 H            4.496843           -1.010524           -6.441020
 H            6.296841           -0.565627           -8.054543
 H            8.647284           -0.223076           -7.282905
 H           10.275423           -0.118374           -5.445782
 H           11.919425           -0.018312           -3.614382
 H           13.564847            0.069774           -1.789471
 H           15.218038            0.153686            0.033682
 H           16.880889            0.236393            1.868902
 H           17.394248            0.050041            4.304641
 H           15.618177           -0.444791            5.930800
 H           13.258471           -0.772384            5.185162
 H           11.602367           -0.854574            3.349103
 H            9.953355           -0.941258            1.518488
 H            8.303244           -1.029694           -0.310596
 H            6.651241           -1.103392           -2.133842
 H            4.873716           -3.369304           -3.989187
 H            2.987779           -3.912342           -2.446117
 H            1.164593           -3.140881           -0.960418
 H           -0.652620           -2.374476            0.513090
 H           -2.461852           -1.613493            2.000740
 H           -4.263356           -0.851267            3.519884

