116

 C          -21.485153           -2.475843            1.257071
 C          -20.641266           -1.941279            0.344299
 C          -19.237240           -1.705715            0.662663
 C          -18.367997           -1.164756           -0.249160
 C          -16.983437           -0.936972            0.077765
 C          -16.095094           -0.388855           -0.841318
 C          -14.734450           -0.169168           -0.507829
 C          -13.820090            0.388944           -1.436452
 C          -12.487392            0.601770           -1.098408
 C          -11.548401            1.171498           -2.031179
 C          -10.237514            1.380240           -1.687338
 C           -9.276286            1.960576           -2.618509
 C           -7.985028            2.154171           -2.267150
 C           -7.512333            1.788214           -0.938485
 C           -6.084902            2.009534           -0.618415
 C           -5.757558            2.828099            0.538805
 C           -4.467977            3.045228            0.888183
 C           -3.370904            2.469267            0.123291
 C           -2.054718            2.672367            0.472137
 C           -0.987027            2.102153           -0.294718
 C            0.358120            2.306141            0.050197
 C            1.395434            1.746091           -0.711674
 C            2.771874            1.950353           -0.371114
 C            3.783380            1.398416           -1.125366
 C            5.183692            1.593974           -0.787613
 C            6.172288            1.037073           -1.537111
 C            7.598180            1.213280           -1.183445
 C            8.118039            2.570094           -1.076196
 C            9.409326            2.790436           -0.741085
 C           10.323149            1.685377           -0.473472
 C           11.633017            1.893022           -0.125094
 C           12.524975            0.790962            0.132243
 C           13.856374            0.991012            0.482969
 C           14.724201           -0.102413            0.730333
 C           16.083227            0.090105            1.086450
 C           16.925731           -0.990020            1.326878
 C           18.308196           -0.807122            1.688986
 C           19.132110           -1.877263            1.924751
 C           20.533393           -1.705645            2.292360
 C           21.332130           -2.773600            2.521465
 C           20.815483           -4.125115            2.407416
 C           19.523802           -4.345685            2.069716
 C           18.612099           -3.236917            1.810202
 C           17.300666           -3.441463            1.467149
 C           16.410748           -2.337358            1.213352
 C           15.079521           -2.536739            0.864753
 C           14.212888           -1.442381            0.616997
 C           12.855189           -1.636385            0.260225
 C           12.011974           -0.556831            0.017992
 C           10.631287           -0.743035           -0.346402
 C            9.805189            0.325255           -0.586023
 C            8.407289            0.147042           -0.951980
 C            5.846225            0.238241           -2.708274
 C            4.557065            0.029681           -3.064318
 C            3.458849            0.592510           -2.291136
 C            2.142671            0.381329           -2.634638
 C            1.074261            0.946353           -1.864530
 C           -0.270736            0.740471           -2.207993
 C           -1.308328            1.303000           -1.447842
 C           -2.684606            1.102203           -1.790307
 C           -3.696007            1.659427           -1.039483
 C           -5.096553            1.458432           -1.372625
 C           -8.366386            1.249569           -0.029838
 C           -9.766775            1.018346           -0.353807
 C          -10.638199            0.473968            0.554686
 C          -12.021198            0.246475            0.224204
 C          -12.910305           -0.303066            1.142107
 C          -14.269743           -0.522137            0.807221
 C          -15.182904           -1.080800            1.736737
 C          -16.515355           -1.291943            1.400037
 C          -17.452208           -1.858679            2.336225
 C          -18.764515           -2.063903            1.997029
 C          -19.723428           -2.636754            2.935239
 C          -21.015367           -2.832008            2.583393
 H          -22.534627           -2.655176            1.028996
 H          -20.978367           -1.669286           -0.655245
 H          -18.704701           -0.892326           -1.249047
 H          -16.441572           -0.119926           -1.838870
 H          -14.178875            0.652960           -2.430936
 H          -11.913865            1.433367           -3.023956
 H           -9.641807            2.233313           -3.608559
 H           -7.262868            2.591217           -2.956354
 H           -6.583960            3.260055            1.102707
 H           -4.209948            3.658685            1.751360
 H           -1.797729            3.274280            1.343597
 H            0.602129            2.910180            0.923911
 H            3.000807            2.556446            0.505128
 H            5.410490            2.193935            0.093786
 H            7.430773            3.390509           -1.281233
 H            9.810323            3.800921           -0.661304
 H           12.033507            2.902563           -0.034162
 H           14.250476            2.003103            0.571620
 H           16.465355            1.107172            1.170691
 H           18.680739            0.213684            1.770127
 H           20.906236           -0.685291            2.373860
 H           22.379079           -2.655621            2.796554
 H           21.503625           -4.946033            2.603174
 H           19.121324           -5.353922            1.980269
 H           16.897224           -4.449771            1.377457
 H           14.684910           -3.548774            0.777718
 H           12.474415           -2.654145            0.176621
 H           10.260546           -1.764733           -0.426109
 H            8.033237           -0.874317           -1.023204
 H            6.673335           -0.175369           -3.284689
 H            4.300134           -0.564583           -3.941067
 H            1.885830           -0.223452           -3.504068
 H           -0.514941            0.134188           -3.080017
 H           -2.913972            0.493449           -2.664513
 H           -5.324227            0.841345           -2.241797
 H           -8.028006            0.964786            0.966500
 H          -10.303008            0.198562            1.554451
 H          -12.564965           -0.573507            2.139847
 H          -14.823478           -1.346214            2.730690
 H          -17.083655           -2.120539            3.327771
 H          -19.355643           -2.899164            3.926445
 H          -21.738747           -3.258917            3.276350

