116

 C           -9.316875            7.474903           -0.199936
 C           -7.886630            7.437624           -0.444525
 C           -7.250422            6.261237           -0.651193
 C           -7.978111            4.997062           -0.634281
 C           -7.348620            3.794669           -0.830791
 C           -8.074214            2.549657           -0.820294
 C           -9.502558            2.593320           -0.597335
 C          -10.137153            3.869722           -0.387414
 C           -9.417859            5.036454           -0.399533
 C          -10.045810            6.334920           -0.180913
 C          -10.237257            1.413488           -0.586751
 C           -9.614833            0.158416           -0.795199
 C          -10.366885           -1.043450           -0.786388
 C           -9.760692           -2.276439           -0.997901
 C          -10.513148           -3.504500           -0.984635
 C           -9.905463           -4.715244           -1.195581
 C          -10.653869           -5.967274           -1.175328
 C          -10.037605           -7.153435           -1.385767
 C           -8.610266           -7.212960           -1.642103
 C           -7.864831           -6.083946           -1.672961
 C           -8.468495           -4.775286           -1.447592
 C           -7.727280           -3.621612           -1.464816
 C           -8.335776           -2.335939           -1.236696
 C           -7.589883           -1.161658           -1.240149
 C           -8.195187            0.101805           -1.020391
 C           -7.446536            1.315487           -1.019989
 C           -5.980907            1.260063           -1.243749
 C           -5.500596            1.398984           -2.610118
 C           -4.174172            1.375274           -2.878144
 C           -3.191320            1.208148           -1.816042
 C           -1.839084            1.187409           -2.072798
 C           -0.884872            1.020335           -1.016488
 C            0.495557            0.996673           -1.268063
 C            1.420517            0.830210           -0.225189
 C            2.831847            0.803312           -0.469761
 C            3.732013            0.638761            0.559503
 C            5.167199            0.615390            0.325385
 C            6.041888            0.460146            1.353469
 C            7.509249            0.456178            1.134166
 C            8.171712           -0.783258            0.892427
 C            7.478868           -2.020210            0.866743
 C            8.141349           -3.220251            0.629324
 C            7.443884           -4.480456            0.608300
 C            8.103157           -5.657330            0.361473
 C            7.408767           -6.939757            0.333251
 C            8.073914           -8.090222            0.077919
 C            9.503354           -8.081064           -0.173391
 C           10.201884           -6.922236           -0.154662
 C            9.542173           -5.649151            0.114291
 C           10.233702           -4.465459            0.137354
 C            9.568219           -3.214291            0.395002
 C           10.259772           -2.008564            0.421671
 C            9.592934           -0.782247            0.670000
 C           10.302058            0.443526            0.702590
 C            9.651001            1.646701            0.948270
 C           10.373251            2.893100            0.982288
 C            9.736638            4.081981            1.227097
 C           10.453658            5.352172            1.256323
 C            9.805413            6.514085            1.503424
 C            8.375438            6.528301            1.751997
 C            7.658700            5.380626            1.734746
 C            8.297038            4.096763            1.465759
 C            7.585082            2.925273            1.432959
 C            8.222235            1.659130            1.172578
 C            5.561110            0.300637            2.717299
 C            4.234331            0.316211            2.984607
 C            3.251414            0.488851            1.923596
 C            1.899171            0.513216            2.180897
 C            0.945064            0.682926            1.125163
 C           -0.435583            0.708173            1.376826
 C           -1.360429            0.872990            0.333902
 C           -2.772056            0.899156            0.578042
 C           -3.672095            1.060451           -0.451644
 C           -5.107086            1.093362           -0.216812
 H           -9.774252            8.449333           -0.034257
 H           -7.352592            8.386618           -0.455110
 H           -6.177524            6.217181           -0.837310
 H           -6.270590            3.755489           -1.002447
 H          -11.213433            3.879898           -0.216954
 H          -11.120274            6.346461           -0.001439
 H          -11.313368            1.444913           -0.417329
 H          -11.440679           -0.988608           -0.609643
 H          -11.584942           -3.441671           -0.799166
 H          -11.724418           -5.905958           -0.982880
 H          -10.586142           -8.094020           -1.370156
 H           -8.168845           -8.194610           -1.806726
 H           -6.792816           -6.112556           -1.865175
 H           -6.653768           -3.650239           -1.652284
 H           -6.512852           -1.206520           -1.416352
 H           -6.246567            1.521346           -3.395695
 H           -3.798033            1.480548           -3.895778
 H           -1.464526            1.298113           -3.090321
 H            0.856529            1.109313           -2.290260
 H            3.178452            0.917419           -1.496856
 H            5.514345            0.730113           -0.701880
 H            6.400153           -2.023652            1.038394
 H            6.369889           -4.470628            0.795046
 H            6.336210           -6.930729            0.524511
 H            7.564327           -9.052094            0.052337
 H            9.985188           -9.036489           -0.375639
 H           11.275087           -6.899051           -0.340410
 H           11.308182           -4.442086           -0.041441
 H           11.335600           -1.994796            0.249539
 H           11.378344            0.432935            0.531947
 H           11.448088            2.862136            0.805483
 H           11.526665            5.324657            1.070198
 H           10.329606            7.468556            1.524149
 H            7.908461            7.491624            1.951521
 H            6.584860            5.374960            1.920700
 H            6.506690            2.927508            1.606935
 H            6.306943            0.170804            3.501872
 H            3.858005            0.200785            4.001055
 H            1.524725            0.403302            3.198525
 H           -0.796508            0.598015            2.399296
 H           -3.118799            0.787891            1.605383
 H           -5.454522            0.982950            0.810798

