92

 C          -17.183747            0.947329           -0.715827
 C          -16.809817            0.936972           -2.111864
 C          -15.519727            0.732495           -2.480829
 C          -14.483847            0.519358           -1.485227
 C          -13.161011            0.308480           -1.841293
 C          -12.160721            0.100871           -0.853770
 C          -10.802794           -0.117981           -1.207570
 C           -9.835160           -0.321590           -0.235250
 C           -8.445857           -0.546700           -0.581335
 C           -7.505233           -0.742234            0.384864
 C           -6.082806           -0.953160            0.038457
 C           -5.747513           -2.038614           -0.870326
 C           -4.462536           -2.263725           -1.231240
 C           -3.379199           -1.433039           -0.723957
 C           -2.067721           -1.648509           -1.081503
 C           -1.014446           -0.821511           -0.571229
 C            0.325519           -1.034442           -0.928181
 C            1.348733           -0.217687           -0.421873
 C            2.719526           -0.425708           -0.779658
 C            3.717071            0.381195           -0.278991
 C            5.111585            0.179181           -0.633600
 C            6.088255            0.979796           -0.129203
 C            7.510534            0.763262           -0.472818
 C            8.447357            0.558807            0.495201
 C            9.836005            0.325379            0.151977
 C           10.799674            0.111279            1.126012
 C           12.156749           -0.116992            0.774848
 C           13.153049           -0.336263            1.763927
 C           14.474874           -0.557154            1.410127
 C           15.506742           -0.782813            2.407154
 C           16.795773           -0.997350            2.040193
 C           17.172610           -1.006129            0.644909
 C           16.244365           -0.800069           -0.323768
 C           14.851440           -0.565911            0.014611
 C           13.887842           -0.353539           -0.959183
 C           12.529711           -0.125996           -0.609220
 C           11.532960            0.093112           -1.597894
 C           10.211449            0.315493           -1.243409
 C            9.177769            0.542124           -2.238052
 C            7.889122            0.756439           -1.873359
 C            5.754066            2.066961            0.777852
 C            4.469019            2.294934            1.137238
 C            3.384564            1.465588            0.630598
 C            2.072867            1.682468            0.987678
 C            1.019047            0.856068            0.478208
 C           -0.321462            1.068843            0.835061
 C           -1.344455            0.252007            0.329218
 C           -2.715875            0.458327            0.687077
 C           -3.712551           -0.349467            0.186584
 C           -5.107428           -0.150556            0.542161
 C           -7.880469           -0.733092            1.786297
 C           -9.169520           -0.525874            2.153644
 C          -10.207356           -0.309756            1.160975
 C          -11.529632           -0.096097            1.518021
 C          -12.530587            0.111674            0.531100
 C          -13.889789            0.329112            0.883389
 C          -14.857427            0.529736           -0.088939
 C          -16.251639            0.752796            0.251612
 H          -18.231349            1.115321           -0.471149
 H          -17.593844            1.097686           -2.850029
 H          -15.222748            0.721963           -3.528685
 H          -12.869544            0.298980           -2.891171
 H          -10.529324           -0.123363           -2.262439
 H           -8.179105           -0.544201           -1.638212
 H           -6.563304           -2.659493           -1.240283
 H           -4.197703           -3.073066           -1.911735
 H           -1.802972           -2.456762           -1.762905
 H            0.576858           -1.847099           -1.609354
 H            2.956569           -1.242721           -1.460807
 H            5.345541           -0.643267           -1.309821
 H            8.177553            0.554632            1.551275
 H           10.523413            0.115197            2.180146
 H           12.859138           -0.327923            2.813121
 H           15.207528           -0.773421            3.454370
 H           17.576786           -1.167728            2.779454
 H           18.219139           -1.182706            0.401762
 H           16.513721           -0.804031           -1.379014
 H           14.162777           -0.358445           -2.013517
 H           11.825037            0.083820           -2.647692
 H            9.474566            0.533677           -3.286750
 H            7.108147            0.933113           -2.612679
 H            6.570741            2.686822            1.147752
 H            4.205316            3.105788            1.816458
 H            1.808946            2.491567            1.668491
 H           -0.572704            1.881629            1.516217
 H           -2.953718            1.274811            1.368679
 H           -5.342700            0.670973            1.219104
 H           -7.096502           -0.902555            2.524217
 H           -9.463658           -0.515761            3.203054
 H          -11.819205           -0.085321            2.568484
 H          -14.162471            0.335474            1.938290
 H          -16.518979            0.757983            1.307345

