104

 C            9.798663           -5.941988           -1.152660
 C            8.418552           -5.854523           -1.585835
 C            7.722613           -4.700050           -1.450057
 C            8.338605           -3.516244           -0.866498
 C            7.645532           -2.336523           -0.712315
 C            8.261541           -1.174949           -0.141877
 C            9.637668           -1.259725            0.270066
 C           10.339905           -2.498141            0.106214
 C            9.725516           -3.601851           -0.440363
 C           10.422673           -4.869517           -0.608455
 C           10.267057           -0.135661            0.825088
 C            9.579004            1.076215            0.984810
 C           10.221139            2.225160            1.551826
 C            9.549110            3.416397            1.706411
 C           10.184137            4.591724            2.286817
 C            9.503873            5.755126            2.425495
 C            8.124182            5.862212            1.995355
 C            7.484927            4.798833            1.451133
 C            8.162559            3.520631            1.283500
 C            7.527121            2.426150            0.741317
 C            8.202846            1.173156            0.575862
 C            7.564728            0.041124            0.024744
 C            6.143051            0.133595           -0.388955
 C            5.861886            0.513402           -1.764943
 C            4.584959            0.621754           -2.200517
 C            3.458682            0.363977           -1.313496
 C            2.154759            0.474055           -1.740698
 C            1.058575            0.218407           -0.853645
 C           -0.274086            0.330620           -1.278434
 C           -1.339072            0.079424           -0.399317
 C           -2.703203            0.193777           -0.821042
 C           -3.742054           -0.051757            0.048695
 C           -5.130729            0.066477           -0.366153
 C           -6.144555           -0.174938            0.505556
 C           -7.565837           -0.048084            0.099694
 C           -8.213136            1.200599            0.219550
 C           -7.547044            2.360103            0.735447
 C           -8.191074            3.572386            0.842031
 C           -7.522982            4.754929            1.367900
 C           -8.170816            5.941635            1.456576
 C           -9.550247            6.065212            1.030012
 C          -10.221559            4.995766            0.539228
 C           -9.577186            3.694797            0.422511
 C          -10.239937            2.593659           -0.070042
 C           -9.588579            1.322340           -0.185112
 C          -10.266442            0.201407           -0.686353
 C           -9.627636           -1.042236           -0.800004
 C          -10.319290           -2.187230           -1.313677
 C           -9.695444           -3.409093           -1.425200
 C          -10.381465           -4.580841           -1.951967
 C           -9.748469           -5.774610           -2.049600
 C           -8.369563           -5.918119           -1.627558
 C           -7.683858           -4.859514           -1.132252
 C           -8.309693           -3.550144           -1.010294
 C           -7.626934           -2.460134           -0.518391
 C           -8.252396           -1.176290           -0.398221
 C           -5.863824           -0.564552            1.878842
 C           -4.586964           -0.688201            2.310744
 C           -3.460306           -0.437264            1.422176
 C           -2.156325           -0.554106            1.847917
 C           -1.059933           -0.301127            0.960354
 C            0.272927           -0.414134            1.384995
 C            1.337841           -0.161617            0.506188
 C            2.702249           -0.271069            0.928952
 C            3.740757           -0.019055            0.060657
 C            5.129686           -0.122068            0.479186
 H           10.309265           -6.895379           -1.281096
 H            7.967741           -6.745221           -2.020752
 H            6.684469           -4.618406           -1.771148
 H            6.602017           -2.265668           -1.026943
 H           11.379874           -2.545254            0.427872
 H           11.459914           -4.919053           -0.279683
 H           11.308673           -0.205021            1.137263
 H           11.261899            2.131828            1.860494
 H           11.221920            4.496244            2.603515
 H            9.967821            6.639465            2.860239
 H            7.626794            6.822128            2.125410
 H            6.448016            4.863498            1.122207
 H            6.484541            2.496562            0.423376
 H            6.713368            0.704150           -2.418773
 H            4.358201            0.905493           -3.228112
 H            1.928161            0.759769           -2.767750
 H           -0.486279            0.618135           -2.308058
 H           -2.900745            0.482501           -1.853396
 H           -5.327244            0.356777           -1.398781
 H           -6.504949            2.261092            1.047317
 H           -6.486219            4.645641            1.685273
 H           -7.680646            6.831854            1.847817
 H          -10.021311            7.043118            1.119576
 H          -11.259094            5.072287            0.216602
 H          -11.280312            2.668068           -0.385059
 H          -11.307575            0.298224           -0.992795
 H          -11.358792           -2.066085           -1.616893
 H          -11.418101           -4.457583           -2.262899
 H          -10.250706           -6.656778           -2.444169
 H           -7.911229           -6.901226           -1.723073
 H           -6.646910           -4.951690           -0.810178
 H           -6.584505           -2.557771           -0.207305
 H           -6.715755           -0.748909            2.533930
 H           -4.360568           -0.978719            3.336509
 H           -1.929990           -0.842427            2.874282
 H            0.485104           -0.702169            2.414460
 H            2.900104           -0.559762            1.961235
 H            5.326661           -0.409708            1.512465

