104

 C           15.571337            5.444049           -0.316670
 C           14.359012            5.529347           -1.070906
 C           13.396612            4.563603           -0.949828
 C           13.589173            3.449809           -0.063696
 C           12.607970            2.433861            0.081074
 C           12.797994            1.361170            0.938522
 C           14.020110            1.283730            1.695968
 C           14.986103            2.268251            1.563874
 C           14.794223            3.366427            0.686220
 C           15.784633            4.395336            0.536378
 C           14.230484            0.159304            2.602521
 C           13.307535           -0.811416            2.745960
 C           12.051367           -0.785648            2.002801
 C           11.117486           -1.796270            2.166074
 C            9.890557           -1.779214            1.454227
 C            8.911052           -2.817174            1.612179
 C            7.732243           -2.774126            0.921596
 C            7.453108           -1.688041            0.023864
 C            6.154160           -1.678533           -0.686177
 C            6.158364           -1.632118           -2.140091
 C            4.996608           -1.639961           -2.835121
 C            3.708819           -1.693985           -2.156829
 C            2.518846           -1.709851           -2.848945
 C            1.260840           -1.760966           -2.163973
 C            0.041014           -1.764541           -2.858650
 C           -1.184233           -1.803284           -2.174159
 C           -2.437203           -1.795817           -2.869693
 C           -3.632962           -1.820525           -2.187572
 C           -4.915838           -1.811107           -2.876920
 C           -6.083128           -1.841415           -2.191772
 C           -6.089717           -1.885100           -0.737804
 C           -7.393783           -1.934036           -0.038834
 C           -7.645049           -3.023091            0.863515
 C           -8.827626           -3.100029            1.544806
 C           -9.839163           -2.095665            1.372060
 C          -11.070451           -2.147097            2.074816
 C          -12.035214           -1.168440            1.896839
 C          -13.295378           -1.228332            2.631340
 C          -14.247818           -0.288854            2.473568
 C          -14.067156            0.834245            1.558907
 C          -15.063138            1.786141            1.411772
 C          -14.900354            2.882357            0.525687
 C          -15.921990            3.877738            0.360206
 C          -15.736887            4.924438           -0.501894
 C          -14.523250            5.041462           -1.249735
 C          -13.531347            4.108077           -1.113476
 C          -13.693920            2.997271           -0.217717
 C          -12.681733            2.014548           -0.057315
 C          -12.842970            0.944343            0.808975
 C          -11.800538           -0.080052            0.983662
 C          -10.597807           -0.028109            0.295712
 C           -9.597886           -1.021343            0.472633
 C           -8.348695           -0.965186           -0.231251
 C           -4.918046           -1.889106           -0.046871
 C           -3.637429           -1.860202           -0.734224
 C           -2.444513           -1.875853           -0.046005
 C           -1.189164           -1.847125           -0.735445
 C            0.030713           -1.854263           -0.041188
 C            1.255129           -1.805117           -0.725193
 C            2.505113           -1.791331           -0.025249
 C            3.702335           -1.734793           -0.703433
 C            4.977475           -1.721968           -0.005354
 C            8.376917           -0.686738           -0.153737
 C            9.621418           -0.706697            0.560528
 C           10.589712            0.320044            0.399379
 C           11.788202            0.302009            1.096552
 H           16.315902            6.229315           -0.437586
 H           14.222438            6.377306           -1.740190
 H           12.470359            4.619337           -1.519290
 H           11.689465            2.514755           -0.503093
 H           15.911733            2.210793            2.136136
 H           16.702968            4.318431            1.116298
 H           15.168061            0.140629            3.159189
 H           13.466701           -1.650592            3.423866
 H           11.316168           -2.621926            2.849291
 H            9.131287           -3.637457            2.294469
 H            6.986486           -3.561163            1.031473
 H            7.125295           -1.598830           -2.641418
 H            4.987825           -1.607973           -3.924666
 H            2.510536           -1.683346           -3.938369
 H            0.044916           -1.732021           -3.948088
 H           -2.420771           -1.769548           -3.959038
 H           -4.898862           -1.780508           -3.966413
 H           -7.046351           -1.841831           -2.701239
 H           -6.875261           -3.784968            0.984587
 H           -9.026749           -3.922680            2.230705
 H          -11.247611           -2.973610            2.762867
 H          -13.432588           -2.066781            3.314928
 H          -15.188413           -0.333113            3.023627
 H          -15.990544            1.703958            1.978062
 H          -16.841168            3.777033            0.935059
 H          -16.505525            5.684101           -0.634961
 H          -14.409597            5.886958           -1.926363
 H          -12.603845            4.187873           -1.678067
 H          -11.762568            2.119449           -0.636667
 H          -10.397547            0.788367           -0.400556
 H           -8.171866           -0.133351           -0.912180
 H           -4.903596           -1.909496            1.042949
 H           -2.432570           -1.908377            1.043319
 H            0.026793           -1.894862            1.047806
 H            2.485093           -1.824898            1.063920
 H            4.954466           -1.744483            1.084287
 H            8.178461            0.143403           -0.830711
 H           10.368302            1.135063           -0.292133

