96

 C            9.442899            2.065815           -4.351138
 C           10.690597            1.383609           -4.281430
 C           11.006571            0.626625           -3.180446
 C           10.095899            0.507958           -2.083919
 C            8.855242            1.192170           -2.154731
 C            8.547786            1.972619           -3.314898
 C            7.924147            1.097791           -1.075001
 C            8.206184            0.348979            0.045442
 C            9.463761           -0.359875            0.132237
 C           10.395843           -0.282600           -0.916559
 C           11.639543           -1.007968           -0.796986
 C           11.923799           -1.760826            0.299257
 C           10.984935           -1.860860            1.391109
 C           11.256860           -2.642804            2.538945
 C           10.331940           -2.718752            3.568137
 C            9.112478           -2.021499            3.490304
 C            8.817130           -1.243876            2.372010
 C            9.758278           -1.155588            1.300672
 C            7.560957           -0.517706            2.257866
 C            7.267168            0.229519            1.166963
 C            5.960927            0.929001            1.090718
 C            5.907557            2.339441            1.439456
 C            4.728869            3.006257            1.428451
 C            3.483932            2.338977            1.071324
 C            2.272756            2.994636            1.078136
 C            1.058178            2.318416            0.727810
 C           -0.184382            2.972911            0.734888
 C           -1.365457            2.294464            0.393522
 C           -2.641548            2.948101            0.392649
 C           -3.791616            2.271015            0.052980
 C           -5.097371            2.917390            0.042903
 C           -6.215047            2.241611           -0.314860
 C           -6.139861            0.841258           -0.697890
 C           -7.385965            0.156020           -1.121530
 C           -7.749914            0.172640           -2.425854
 C           -8.943391           -0.515860           -2.895324
 C           -9.745630           -1.220128           -1.945598
 C          -10.907053           -1.904121           -2.385271
 C          -11.252216           -1.881265           -3.757551
 C          -10.462052           -1.194842           -4.665770
 C           -9.308672           -0.510492           -4.240315
 C          -11.705656           -2.610290           -1.412057
 C          -11.352843           -2.623329           -0.098762
 C          -10.172864           -1.937893            0.375667
 C           -9.377012           -1.241304           -0.549617
 C           -8.186034           -0.547561           -0.112016
 C           -7.836564           -0.570794            1.219532
 C           -8.629041           -1.271962            2.179682
 C           -8.250928           -1.291650            3.560384
 C           -9.010823           -1.966310            4.482917
 C          -10.187616           -2.654982            4.073293
 C          -10.569969           -2.650875            2.754661
 C           -9.799983           -1.958664            1.767859
 C           -4.950721            0.184599           -0.687651
 C           -3.721874            0.865989           -0.314615
 C           -2.508297            0.216288           -0.314814
 C           -1.300122            0.902711            0.032148
 C           -0.059162            0.248459            0.022047
 C            1.120672            0.927970            0.361213
 C            2.390400            0.265804            0.356837
 C            3.543182            0.933486            0.704084
 C            4.832909            0.263345            0.730102
 H            9.215530            2.657022           -5.236740
 H           11.385277            1.472927           -5.115122
 H           11.961712            0.101505           -3.125492
 H            7.589068            2.488581           -3.356861
 H            6.977034            1.634846           -1.161334
 H           12.351627           -0.935297           -1.622002
 H           12.863430           -2.306384            0.380713
 H           12.198779           -3.184473            2.605101
 H           10.542682           -3.323347            4.449834
 H            8.400415           -2.096056            4.310530
 H            6.859009           -0.602216            3.089407
 H            6.843917            2.827649            1.709997
 H            4.673467            4.063356            1.688486
 H            2.212986            4.046777            1.355792
 H           -0.232801            4.026260            1.010533
 H           -2.678596            4.002332            0.666330
 H           -5.138543            3.967048            0.333836
 H           -7.196159            2.716259           -0.329413
 H           -7.152179            0.699195           -3.171999
 H          -12.143744           -2.408434           -4.092535
 H          -10.728634           -1.180631           -5.722172
 H           -8.702634            0.021661           -4.971709
 H          -12.596576           -3.130883           -1.761823
 H          -11.959107           -3.159109            0.634904
 H           -6.940841           -0.052331            1.568741
 H           -7.348069           -0.760995            3.861196
 H           -8.728789           -1.986179            5.534409
 H          -10.775188           -3.182863            4.822717
 H          -11.471436           -3.178381            2.438314
 H           -4.881761           -0.867610           -0.965172
 H           -2.443180           -0.838131           -0.583380
 H           -0.010657           -0.804950           -0.253529
 H            2.422224           -0.786320            0.073714
 H            4.860122           -0.791926            0.457231

