96

 C           14.763292            3.484846            1.475421
 C           14.981297            2.256312            2.126380
 C           14.018379            1.250703            2.073030
 C           12.803562            1.473024            1.353109
 C           12.593094            2.714430            0.701597
 C           13.591013            3.715431            0.773043
 C           11.357989            2.918260           -0.017966
 C           10.411072            1.943215           -0.073012
 C           10.599600            0.668224            0.579379
 C           11.793243            0.443879            1.285294
 C           12.023173           -0.818055            1.949485
 C           11.068370           -1.808054            1.887046
 C            9.846512           -1.604143            1.176679
 C            8.858518           -2.638534            1.119690
 C            7.678848           -2.445401            0.449525
 C            7.422132           -1.201925           -0.207957
 C            6.131917           -1.022827           -0.909797
 C            6.149355           -0.684281           -2.324245
 C            4.993363           -0.532405           -3.012607
 C            3.699237           -0.696721           -2.364745
 C            2.513990           -0.553184           -3.050608
 C            1.250618           -0.715348           -2.393207
 C            0.035387           -0.571695           -3.081165
 C           -1.194695           -0.718572           -2.420427
 C           -2.443323           -0.559615           -3.105811
 C           -3.643321           -0.705932           -2.446463
 C           -4.922910           -0.544560           -3.123095
 C           -6.093681           -0.698580           -2.460576
 C           -6.106949           -1.036636           -1.046008
 C           -7.412026           -1.217190           -0.372480
 C           -7.680049           -2.458949            0.283515
 C           -8.873413           -2.652463            0.928999
 C           -9.864788           -1.620277            0.961146
 C          -11.100929           -1.823921            1.646638
 C          -12.059292           -0.836071            1.684293
 C          -13.327197           -1.022633            2.384229
 C          -14.267531           -0.055326            2.418368
 C          -14.062629            1.227258            1.753888
 C          -12.832872            1.449940            1.059832
 C          -12.611576            2.688953            0.407445
 C          -13.613978            3.687137            0.452037
 C          -14.801182            3.455945            1.128630
 C          -15.029908            2.229720            1.780499
 C          -11.361755            2.892945           -0.286152
 C          -10.411544            1.919984           -0.316413
 C          -10.610695            0.647612            0.337770
 C          -11.818622            0.423227            1.018812
 C           -9.607145           -0.387614            0.306328
 C           -8.356119           -0.213541           -0.360911
 C           -4.938986           -1.191905           -0.366698
 C           -3.655870           -1.032669           -1.029902
 C           -2.467776           -1.187066           -0.351034
 C           -1.208863           -1.033710           -1.016006
 C            0.005491           -1.184192           -0.329029
 C            1.234251           -1.030527           -0.988762
 C            2.478595           -1.180815           -0.295913
 C            3.680975           -1.023628           -0.948207
 C            4.949491           -1.180403           -0.256748
 C            8.362883           -0.195744           -0.171807
 C            9.599748           -0.369287            0.521736
 C           13.276410           -1.004728            2.675508
 C           14.212650           -0.034806            2.735081
 H           15.529922            4.257583            1.529533
 H           15.909875            2.098070            2.672542
 H           13.427773            4.667837            0.271316
 H           11.207938            3.876391           -0.514992
 H            9.478032            2.104304           -0.617124
 H           11.228041           -2.766119            2.381058
 H            9.064291           -3.583698            1.621690
 H            6.924319           -3.230157            0.401796
 H            7.120920           -0.567968           -2.803853
 H            4.993973           -0.283562           -4.073882
 H            2.513324           -0.309688           -4.112902
 H            0.046899           -0.343213           -4.146756
 H           -2.419724           -0.316211           -4.167869
 H           -4.900443           -0.296081           -4.184202
 H           -7.054583           -0.584520           -2.961626
 H           -6.923076           -3.242398            0.254648
 H           -9.087763           -3.596360            1.429834
 H          -11.268645           -2.780041            2.141627
 H          -13.481057           -1.981211            2.880044
 H          -15.212218           -0.198849            2.943216
 H          -13.442367            4.637813           -0.050186
 H          -15.571416            4.226169            1.161512
 H          -15.970159            2.070952            2.306004
 H          -11.203383            3.849232           -0.784235
 H           -9.467553            2.080977           -0.841497
 H           -8.152951            0.738335           -0.856023
 H           -4.930059           -1.435963            0.695687
 H           -2.462447           -1.430315            0.711302
 H           -0.006065           -1.422749            0.734401
 H            2.450139           -1.424109            0.766042
 H            4.917389           -1.424823            0.805133
 H            8.167976            0.757462           -0.667528
 H           13.422459           -1.965537            3.169466
 H           15.146108           -0.178267            3.279839

