100

 C           13.581950            2.879320            2.382588
 C           13.426870            1.588836            2.003372
 C           12.216497            1.143943            1.323818
 C           12.051757           -0.164510            0.935185
 C           10.852548           -0.579965            0.265966
 N           10.704636           -1.877383           -0.113623
 C            9.550311           -2.225683           -0.745574
 C            9.347951           -3.580314           -1.166303
 C            8.186416           -3.949790           -1.804232
 C            7.978329           -5.323978           -2.240063
 C            6.839587           -5.689594           -2.874032
 C            5.790329           -4.725778           -3.125458
 C            5.920824           -3.430819           -2.733620
 C            4.819134           -2.466873           -2.971102
 C            4.721595           -1.844065           -4.281087
 C            3.720853           -0.974206           -4.556415
 C            2.716897           -0.632972           -3.557205
 C            1.691155            0.247617           -3.820227
 C            0.714544            0.572586           -2.821975
 C           -0.335506            1.470057           -3.074444
 C           -1.283808            1.777146           -2.085143
 C           -2.362551            2.690266           -2.325927
 C           -3.286477            2.979852           -1.346347
 C           -4.391860            3.901724           -1.571649
 C           -5.288473            4.178513           -0.595188
 C           -5.169714            3.558347            0.714341
 C           -6.162107            3.921222            1.754611
 C           -7.232101            2.975162            2.082217
 C           -7.378706            1.776696            1.423456
 C           -8.431000            0.868391            1.779109
 N           -8.554096           -0.315633            1.119653
 C           -9.562614           -1.147605            1.493067
 C           -9.731301           -2.407312            0.826750
 C          -10.745615           -3.260121            1.192563
 C          -10.935839           -4.543812            0.528868
 C          -11.937609           -5.378297            0.893684
 C          -12.852268           -5.016964            1.959334
 C          -12.723317           -3.837703            2.612026
 C          -11.665625           -2.896617            2.264826
 C          -11.528746           -1.696820            2.922092
 C          -10.480862           -0.784899            2.562667
 N          -10.358810            0.398733            3.220946
 C           -9.349127            1.231621            2.846285
 C           -9.179846            2.491108            3.508106
 C           -8.161592            3.342238            3.145215
 C           -7.990442            4.627192            3.809511
 C           -6.994765            5.470843            3.449858
 C           -6.062819            5.111788            2.403368
 C           -4.161594            2.685685            0.976464
 C           -3.173971            2.355481           -0.038224
 C           -2.145639            1.476026            0.215512
 C           -1.175759            1.159692           -0.789507
 C           -0.127116            0.262759           -0.535789
 C            0.819340           -0.042967           -1.525106
 C            1.892390           -0.957460           -1.273105
 C            2.819800           -1.253460           -2.246349
 C            3.911664           -2.181991           -2.000992
 C            7.137295           -2.968832           -2.060082
 C            7.308565           -1.660216           -1.672746
 C            8.509533           -1.244435           -1.006401
 N            8.658055            0.054019           -0.627151
 C            9.810847            0.402373            0.004394
 C           10.011947            1.759922            0.423824
 C           11.172364            2.128601            1.062349
 C           11.398082            3.501815            1.495910
 C           12.543900            3.858005            2.123121
 H           14.483250            3.221182            2.890716
 H           14.197966            0.841678            2.192218
 H           12.817309           -0.921844            1.119829
 H           10.145784           -4.298167           -0.962050
 H            8.774007           -6.040733           -2.035465
 H            6.674651           -6.714097           -3.207267
 H            4.889912           -5.076111           -3.631200
 H            5.478729           -2.102928           -5.020959
 H            3.635410           -0.501172           -5.534930
 H            1.601693            0.717892           -4.799352
 H           -0.416167            1.936548           -4.055956
 H           -2.434775            3.152695           -3.310191
 H           -4.469858            4.359480           -2.558011
 H           -6.120868            4.863326           -0.755809
 H           -6.705103            1.476725            0.613438
 H           -9.028687           -2.655073            0.027394
 H          -10.240538           -4.801622           -0.270327
 H          -12.087731           -6.339463            0.403094
 H          -13.640003           -5.726323            2.211411
 H          -13.402930           -3.552675            3.415374
 H          -12.203724           -1.400796            3.728608
 H           -9.885940            2.744085            4.302466
 H           -8.694608            4.879077            4.602853
 H           -6.859449            6.436229            3.937366
 H           -5.272701            5.823631            2.161527
 H           -4.061672            2.210399            1.952939
 H           -2.049936            1.000320            1.191567
 H           -0.046603           -0.204119            0.445880
 H            1.957802           -1.415392           -0.286143
 H            3.973636           -2.640136           -1.013354
 H            6.542693           -0.899006           -1.856542
 H            9.213916            2.476994            0.216633
 H           10.608477            4.226024            1.294361
 H           12.721565            4.881963            2.450394

