102

 C            8.257349            0.657456            4.117521
 C            9.104270            1.442537            3.397375
 C            8.889508            1.578914            1.985783
 C            9.562591            2.271255            0.991913
 C           10.721860            3.144299            0.943487
 C           11.544488            3.166560           -0.196910
 C           12.664399            3.998987           -0.230883
 C           12.969619            4.812434            0.865568
 C           12.147613            4.798145            1.997127
 C           11.024383            3.969944            2.040611
 O            8.941221            2.037712           -0.243539
 C            7.846988            1.193747           -0.008114
 C            7.084922            0.877207           -1.207321
 C            7.754475            0.502952           -2.385455
 C            7.021903            0.192125           -3.532638
 C            5.624603            0.254829           -3.512539
 C            4.957723            0.637456           -2.344272
 C            5.682361            0.955487           -1.193454
 C            7.781947            0.878342            1.340168
 C            6.918309            0.054371            2.147818
 C            5.792670           -0.677087            1.527613
 C            6.096405           -1.747855            0.591464
 C            5.100068           -2.448094            0.000436
 C            3.700636           -2.154038            0.278590
 C            2.674602           -2.853139           -0.315943
 C            1.303307           -2.550674           -0.027477
 C            0.249328           -3.263155           -0.619936
 C           -1.089415           -2.958091           -0.326064
 C           -2.175391           -3.681796           -0.917852
 C           -3.484352           -3.375300           -0.619677
 C           -4.601183           -4.102975           -1.206567
 C           -5.882530           -3.790724           -0.900313
 C           -6.180933           -2.704708            0.020016
 C           -7.598758           -2.404551            0.315356
 C           -8.393795           -3.315912            0.952601
 C           -9.764576           -3.019341            1.299456
 C          -10.321494           -1.807718            1.027118
 C           -9.527776           -0.815900            0.360560
 C           -9.789607            0.478501           -0.058968
 C          -10.918744            1.387630            0.028518
 C          -11.777921            1.332320            1.140138
 C          -12.865569            2.204195            1.221379
 C          -13.100384            3.134593            0.203726
 C          -12.243092            3.195135           -0.900061
 C          -11.153961            2.326848           -0.991482
 O           -8.663384            0.992807           -0.719369
 C           -7.677891           -0.003530           -0.702006
 C           -6.443416            0.377370           -1.372390
 C           -5.805397           -0.527823           -2.237266
 C           -4.611764           -0.165283           -2.864534
 C           -4.056928            1.099691           -2.644393
 C           -4.699039            2.007387           -1.795847
 C           -5.890460            1.651963           -1.160112
 C           -8.156063           -1.122450           -0.037695
 C           -5.174657           -1.995468            0.597291
 C           -3.782231           -2.297065            0.308923
 C           -2.753664           -1.588062            0.888593
 C           -1.385468           -1.893573            0.596207
 C           -0.331632           -1.181685            1.190234
 C            1.005666           -1.489236            0.898111
 C            2.088190           -0.772703            1.503278
 C            3.398086           -1.084503            1.216504
 C            4.503762           -0.366789            1.828381
 C            7.158171           -0.038802            3.490384
 H            8.385303            0.525889            5.191126
 H            9.944110            1.964072            3.850887
 H           11.300108            2.531969           -1.048791
 H           13.301909            4.013897           -1.113664
 H           13.845525            5.458013            0.837216
 H           12.381645            5.437648            2.847039
 H           10.377711            3.970052            2.917132
 H            8.842997            0.459235           -2.396612
 H            7.540307           -0.099771           -4.444363
 H            5.055808            0.007734           -4.407254
 H            3.869440            0.686404           -2.328123
 H            5.161830            1.259332           -0.284303
 H            7.146934           -1.956201            0.387890
 H            5.313524           -3.250991           -0.704946
 H            2.885950           -3.656624           -1.021068
 H            0.473945           -4.069486           -1.317486
 H           -1.937923           -4.487747           -1.611330
 H           -4.364455           -4.909319           -1.900110
 H           -6.724451           -4.332290           -1.330963
 H           -8.005908           -4.295441            1.230896
 H          -10.335421           -3.803607            1.795162
 H          -11.350570           -1.567252            1.284138
 H          -11.587525            0.618693            1.940749
 H          -13.530435            2.161665            2.082854
 H          -13.948642            3.813337            0.272153
 H          -12.425300            3.921183           -1.691111
 H          -10.480465            2.371030           -1.848133
 H           -6.239288           -1.512953           -2.411415
 H           -4.109839           -0.872856           -3.522718
 H           -3.124358            1.376810           -3.133213
 H           -4.268200            2.992869           -1.627901
 H           -6.395800            2.355890           -0.499257
 H           -5.383360           -1.175184            1.285503
 H           -2.963211           -0.775035            1.583924
 H           -0.556470           -0.379048            1.892468
 H            1.848468            0.028577            2.201944
 H            4.262002            0.430428            2.531082
 H            6.524756           -0.655991            4.127325

