96

 C           11.745237            1.340879            6.632938
 C           11.708702            0.151698            5.990626
 C           10.778850           -0.058716            4.884621
 N           10.743838           -1.225488            4.254323
 C            9.838533           -1.375243            3.200025
 C            9.781703           -2.599631            2.517798
 C            8.875461           -2.751519            1.456703
 N            8.816479           -3.970224            0.778567
 C            7.947944           -4.092103           -0.217768
 C            7.858069           -5.353739           -0.944406
 C            6.978547           -5.488924           -1.961716
 C            6.102002           -4.402562           -2.352299
 C            6.121575           -3.197981           -1.723070
 C            5.190452           -2.119034           -2.123710
 C            5.736382           -0.880358           -2.654375
 C            4.912802            0.112673           -3.065724
 C            3.464812           -0.020064           -2.984664
 C            2.613312            0.976608           -3.406359
 C            1.190472            0.827847           -3.314790
 C            0.311188            1.834278           -3.744683
 C           -1.080574            1.673839           -3.648840
 C           -1.992242            2.694439           -4.075657
 C           -3.355046            2.522273           -3.974574
 C           -4.301413            3.549886           -4.386157
 C           -5.638019            3.364106           -4.271569
 C           -6.172217            2.121738           -3.734788
 C           -7.640780            1.970696           -3.643098
 C           -8.248224            1.600626           -2.354363
 N           -7.496135            1.411131           -1.278195
 C           -8.121353            1.054404           -0.082992
 C           -7.334761            0.847741            1.061872
 C           -7.958303            0.476305            2.261969
 N           -7.172199            0.264121            3.397997
 C           -7.783220           -0.088196            4.521001
 C           -7.007380           -0.323435            5.735688
 C           -7.628400           -0.683103            6.881206
 C           -9.072036           -0.845702            6.942637
 C           -9.852193           -0.644625            5.856821
 C           -9.254396           -0.254539            4.582786
 N          -10.019520           -0.058431            3.517005
 C           -9.397971            0.312983            2.320840
 C          -10.183343            0.524782            1.178067
 C           -9.559590            0.893614           -0.024935
 N          -10.336202            1.101283           -1.166072
 C           -9.720147            1.442358           -2.292186
 C          -10.499779            1.661579           -3.504789
 C           -9.879595            2.000511           -4.657338
 C           -8.440426            2.156452           -4.726619
 C           -5.330749            1.128775           -3.339581
 C           -3.888902            1.283596           -3.433750
 C           -3.031732            0.290907           -3.014671
 C           -1.612110            0.452600           -3.103404
 C           -0.734662           -0.552732           -2.669463
 C            0.655207           -0.390044           -2.765086
 C            1.558077           -1.413283           -2.330548
 C            2.921245           -1.251525           -2.435024
 C            3.845756           -2.291084           -2.014237
 C            7.061386           -2.972790           -0.615828
 N            7.107347           -1.806189            0.013631
 C            8.008978           -1.656970            1.069481
 C            8.063541           -0.432408            1.754348
 C            8.969295           -0.280433            2.815354
 N            9.022411            0.939264            3.495670
 C            9.888466            1.058954            4.493372
 C            9.984864            2.312520            5.236169
 C           10.870140            2.437165            6.250283
 H           12.434015            1.516247            7.461114
 H           12.354972           -0.687413            6.258933
 H           10.435588           -3.428504            2.809808
 H            8.524476           -6.158214           -0.624282
 H            6.896182           -6.423543           -2.519867
 H            5.414730           -4.588383           -3.180930
 H            6.820949           -0.780865           -2.694062
 H            5.308397            1.045959           -3.466202
 H            3.007852            1.904336           -3.820071
 H            0.716143            2.757101           -4.158852
 H           -1.578212            3.617214           -4.481032
 H           -3.891234            4.477730           -4.784406
 H           -6.347425            4.137461           -4.563436
 H           -6.247335            0.975801            1.017702
 H           -5.924824           -0.194065            5.662343
 H           -7.064908           -0.863228            7.798266
 H           -9.501744           -1.137302            7.902483
 H          -10.938333           -0.760800            5.877772
 H          -11.270990            0.403476            1.222229
 H          -11.582294            1.536806           -3.427218
 H          -10.444776            2.165077           -5.576833
 H           -8.014095            2.423350           -5.696234
 H           -5.710572            0.193864           -2.923796
 H           -3.420199           -0.639633           -2.600733
 H           -1.140078           -1.473542           -2.250181
 H            1.137121           -2.327539           -1.913247
 H            3.420570           -3.206532           -1.603614
 H            7.404344            0.393768            1.465205
 H            9.316055            3.120301            4.929593
 H           10.956573            3.366712            6.815482

