100

 C           18.880297            1.078710           -1.775465
 C           18.964298           -0.270277           -2.303888
 C           17.895212           -1.098850           -2.283723
 C           16.620528           -0.650003           -1.724383
 N           15.589417           -1.491918           -1.721044
 C           14.372070           -1.068488           -1.187522
 C           13.291784           -1.969881           -1.189535
 C           12.052868           -1.587487           -0.660957
 C           10.918449           -2.465035           -0.631286
 C            9.726260           -2.039565           -0.095262
 C            8.537741           -2.872477           -0.021597
 C            7.387896           -2.404827            0.518422
 C            7.301950           -1.046927            1.039788
 C            6.010750           -0.589022            1.600861
 C            6.004835           -0.036300            2.946630
 C            4.858007            0.424776            3.498675
 C            3.597402            0.382516            2.771004
 C            2.423782            0.854776            3.314759
 C            1.191810            0.801013            2.584733
 C           -0.011512            1.276645            3.129788
 C           -1.211320            1.217102            2.403602
 C           -2.446858            1.699372            2.946972
 C           -3.616949            1.638880            2.223917
 C           -4.881133            2.127496            2.756868
 C           -6.023888            2.055536            2.034819
 C           -6.021770            1.482337            0.697759
 C           -7.307251            1.405229           -0.032350
 C           -8.390499            0.797116            0.516926
 C           -9.648538            0.713204           -0.216560
 N          -10.685418            0.111062            0.363145
 C          -11.890892            0.024934           -0.330895
 C          -12.975876           -0.612199            0.299031
 C          -14.206314           -0.720825           -0.357948
 C          -15.345005           -1.358427            0.237541
 C          -16.532601           -1.438492           -0.448729
 C          -17.725156           -2.069180            0.092140
 C          -18.871069           -2.120077           -0.627789
 C          -18.941465           -1.547301           -1.959327
 C          -17.867776           -0.946391           -2.521542
 C          -16.602117           -0.859909           -1.793742
 N          -15.566150           -0.261810           -2.377960
 C          -14.357196           -0.176339           -1.687525
 C          -13.271618            0.459370           -2.317816
 C          -12.040416            0.569485           -1.660452
 C          -10.900975            1.209961           -2.251714
 C           -9.716262            1.294022           -1.559792
 C           -8.523328            1.933647           -2.088651
 C           -7.380754            1.989918           -1.365026
 C           -4.866450            1.017708            0.151337
 C           -3.612255            1.073081            0.884813
 C           -2.436609            0.602388            0.343797
 C           -1.207152            0.658891            1.076854
 C           -0.004798            0.183108            0.531690
 C            1.194655            0.242544            1.258193
 C            2.427274           -0.239492            0.710568
 C            3.600082           -0.178897            1.430178
 C            4.858240           -0.659621            0.882478
 C            8.380487           -0.221945            1.001403
 C            9.645602           -0.676569            0.435486
 N           10.677486            0.165527            0.423795
 C           11.890221           -0.260196           -0.114729
 C           12.970008            0.642249           -0.114030
 C           14.207834            0.258767           -0.641052
 C           15.341816            1.137225           -0.663242
 C           16.537368            0.712681           -1.190485
 C           17.725738            1.547795           -1.245338
 H           19.777641            1.695104           -1.822215
 H           19.921529           -0.588886           -2.717359
 H           17.931470           -2.117745           -2.674577
 H           13.434946           -2.969065           -1.607534
 H           11.027451           -3.470655           -1.040796
 H            8.611010           -3.886581           -0.416036
 H            6.494981           -3.027053            0.586694
 H            6.950945           -0.011595            3.487856
 H            4.841568            0.842671            4.505407
 H            2.408725            1.282387            4.317176
 H           -0.013950            1.699624            4.134293
 H           -2.436856            2.117400            3.953485
 H           -4.870540            2.553513            3.760271
 H           -6.972657            2.423458            2.426126
 H           -8.367059            0.342618            1.510630
 H          -12.841257           -1.017937            1.304596
 H          -15.242579           -1.774093            1.241146
 H          -17.658286           -2.495778            1.092873
 H          -19.771496           -2.590079           -0.233303
 H          -19.892313           -1.620441           -2.487776
 H          -17.893538           -0.507935           -3.521213
 H          -13.404835            0.864305           -3.323738
 H          -11.000275            1.625493           -3.255870
 H           -8.587293            2.366069           -3.087786
 H           -6.484437            2.477011           -1.750531
 H           -4.845810            0.578963           -0.846285
 H           -2.419414            0.174265           -0.658182
 H           -0.002193           -0.239551           -0.472785
 H            2.415253           -0.656521           -0.296153
 H            4.843066           -1.065395           -0.129089
 H            8.348031            0.803877            1.377263
 H           12.825309            1.641495            0.303691
 H           15.229246            2.142115           -0.253332
 H           17.648618            2.558599           -0.844966

