102

 C          -12.074154           -5.878936           -4.167103
 C          -12.393175           -5.217737           -3.028591
 C          -11.493470           -4.222502           -2.460946
 C          -11.798736           -3.540015           -1.305427
 C          -10.904086           -2.560938           -0.761985
 C          -11.212586           -1.863782            0.416494
 C          -10.332167           -0.905298            0.936271
 C          -10.602460           -0.169786            2.133891
 C           -9.701385            0.759894            2.599276
 C           -9.932589            1.532449            3.806522
 C           -9.022555            2.441250            4.229850
 C           -7.794297            2.657256            3.497079
 C           -7.506189            1.968118            2.359710
 C           -6.223300            2.198789            1.657091
 C           -6.243079            2.664624            0.279400
 C           -5.088140            2.942276           -0.370938
 C           -3.793146            2.776447            0.275474
 C           -2.608641            3.064898           -0.365515
 C           -1.344168            2.885595            0.286747
 C           -0.128203            3.175966           -0.353584
 C            1.101741            2.989018            0.298805
 C            2.352766            3.275124           -0.340910
 C            3.551172            3.086548            0.311509
 C            4.833747            3.361686           -0.322135
 C            6.001655            3.181057            0.339217
 C            6.007715            2.713399            1.716399
 C            7.298923            2.592693            2.431229
 C            8.341025            1.683324            1.927644
 N            8.128215            0.990093            0.811693
 C            9.113710            0.119005            0.348910
 C            8.868033           -0.612774           -0.826216
 C            9.832689           -1.499533           -1.326429
 C            9.603784           -2.258944           -2.520564
 C           10.556009           -3.123286           -3.011352
 C           10.337896           -3.899571           -4.224455
 C           11.287724           -4.743161           -4.694486
 C           12.550599           -4.897282           -4.000314
 C           12.806373           -4.200953           -2.866717
 C           11.823148           -3.279368           -2.313621
 C           12.062928           -2.563441           -1.162750
 C           11.085911           -1.658454           -0.633285
 C           11.327047           -0.928312            0.541151
 C           10.365832           -0.043437            1.047634
 C           10.565116            0.720749            2.241409
 C            9.585855            1.574299            2.694110
 C            9.742335            2.370938            3.897796
 C            8.755638            3.201741            4.309295
 C            7.519107            3.309542            3.566622
 C            4.838330            2.421461            2.347769
 C            3.559488            2.591261            1.678618
 C            2.370330            2.305834            2.311330
 C            1.113991            2.492974            1.649968
 C           -0.100148            2.204616            2.291467
 C           -1.327805            2.390253            1.638173
 C           -2.570483            2.098562            2.287640
 C           -3.773109            2.283014            1.643195
 C           -5.039669            2.006729            2.300194
 C           -8.465185            0.978495            1.842582
 N           -8.187900            0.313905            0.723202
 C           -9.094004           -0.632691            0.247206
 C           -8.780823           -1.331385           -0.932235
 C           -9.664688           -2.291369           -1.445826
 C           -9.366229           -3.018175           -2.645076
 C          -10.240049           -3.954338           -3.149454
 C           -9.951362           -4.697872           -4.368426
 C          -10.824994           -5.612948           -4.852171
 H          -12.738996           -6.624873           -4.600408
 H          -13.328443           -5.407547           -2.503355
 H          -12.733299           -3.731639           -0.778345
 H          -12.148822           -2.070373            0.935062
 H          -11.535137           -0.362845            2.665301
 H          -10.859197            1.351477            4.350659
 H           -9.181715            3.032754            5.131217
 H           -7.098551            3.400421            3.891977
 H           -7.215344            2.762743           -0.204669
 H           -5.090682            3.293049           -1.402479
 H           -2.609817            3.436676           -1.389579
 H           -0.139020            3.551344           -1.376505
 H            2.332605            3.647185           -1.364680
 H            4.816772            3.713110           -1.353328
 H            6.966808            3.361179           -0.135388
 H            7.912952           -0.480014           -1.339901
 H            8.649093           -2.133876           -3.032527
 H            9.383511           -3.774196           -4.734938
 H           11.134553           -5.327775           -5.600487
 H           13.277941           -5.589275           -4.422643
 H           13.750918           -4.307099           -2.334513
 H           13.006864           -2.671561           -0.628629
 H           12.273807           -1.051621            1.067091
 H           11.506885            0.610250            2.780346
 H           10.676919            2.272093            4.449390
 H            8.857537            3.809457            5.208193
 H            6.760173            3.993479            3.951950
 H            4.823247            2.047195            3.370655
 H            2.362438            1.929204            3.333649
 H           -0.089262            1.828598            3.314002
 H           -2.540888            1.724312            3.310437
 H           -5.003030            1.635597            3.323680
 H           -7.837369           -1.114353           -1.438688
 H           -8.422558           -2.808839           -3.149940
 H           -9.008186           -4.488119           -4.872040
 H          -10.618869           -6.173612           -5.762829

