86

 C           -8.567025            0.370514           -2.995889
 C           -7.416573            0.797989           -2.430084
 C           -7.313457            0.963142           -0.984686
 C           -6.021134            1.414984           -0.423061
 C           -6.009366            2.608483            0.408935
 C           -4.857759            3.050191            0.967060
 C           -3.597652            2.351972            0.754165
 C           -2.418645            2.785544            1.318238
 C           -1.186965            2.088323            1.093494
 C            0.022123            2.523379            1.659268
 C            1.221524            1.830927            1.430684
 C            2.462988            2.263919            2.001447
 C            3.632529            1.574124            1.773510
 C            4.902428            1.996354            2.348194
 C            6.044788            1.310291            2.109816
 C            6.036752            0.124944            1.266222
 C            7.320044           -0.568700            1.017961
 C            8.381148            0.081010            0.475120
 C            9.637668           -0.609222            0.213447
 C           10.711625            0.034634           -0.336715
 C           11.956553           -0.652539           -0.594425
 C           13.038373            0.009217           -1.148743
 C           14.252929           -0.684550           -1.391209
 C           15.437964           -0.192149           -1.935739
 S           16.591156           -1.426023           -2.013231
 C           15.604853           -2.629004           -1.350967
 C           14.349564           -2.101473           -1.051472
 C           13.226511           -2.760708           -0.485155
 C           12.051697           -2.065521           -0.256291
 C           10.894043           -2.712238            0.320680
 C            9.732291           -2.029175            0.553060
 C            8.558405           -2.670782            1.138006
 C            7.416006           -1.983438            1.358992
 C            4.875320           -0.316396            0.713631
 C            3.621537            0.384605            0.937302
 C            2.440101           -0.046971            0.376793
 C            1.211089            0.653665            0.602372
 C            0.003008            0.218967            0.036087
 C           -1.196094            0.911965            0.264076
 C           -2.434162            0.477425           -0.310226
 C           -3.606492            1.163936           -0.083922
 C           -4.869343            0.731824           -0.659717
 C           -8.376635            0.693521           -0.184867
 C           -9.642040            0.229436           -0.738916
 C          -10.718397           -0.047924            0.058029
 C          -11.972004           -0.507778           -0.494523
 C          -13.056286           -0.782486            0.320564
 C          -14.279265           -1.230985           -0.243588
 C          -15.468008           -1.553287            0.409327
 S          -16.631247           -2.034964           -0.718872
 C          -15.645093           -1.844536           -2.078974
 C          -14.381962           -1.400331           -1.690358
 C          -13.256534           -1.113671           -2.507565
 C          -12.073454           -0.676824           -1.937073
 C          -10.913332           -0.376107           -2.746437
 C           -9.743324            0.059995           -2.188585
 H           -8.656765            0.244013           -4.074761
 H           -6.537268            1.038169           -3.027602
 H           -6.954778            3.130220            0.556757
 H           -4.836555            3.942675            1.592431
 H           -2.399532            3.673210            1.950355
 H            0.029397            3.414290            2.286892
 H            2.458530            3.158171            2.624482
 H            4.895954            2.885637            2.978443
 H            6.997376            1.615375            2.542785
 H            8.325390            1.136810            0.208844
 H           10.657134            1.091341           -0.598057
 H           12.978718            1.064714           -1.406859
 H           15.620604            0.814706           -2.265624
 H           15.926650           -3.643165           -1.195891
 H           13.311747           -3.816974           -0.237512
 H           10.980042           -3.770719            0.566371
 H            8.643061           -3.727928            1.389699
 H            6.538131           -2.454586            1.800788
 H            4.850919           -1.202058            0.078480
 H            2.417026           -0.935257           -0.253998
 H           -0.004447           -0.672007           -0.591540
 H           -2.425967           -0.415930           -0.934193
 H           -4.859837           -0.165175           -1.279173
 H           -8.316061            0.806313            0.897912
 H          -10.659252            0.071035            1.139845
 H          -12.992153           -0.660655            1.400094
 H          -15.647734           -1.511552            1.468534
 H          -15.972316           -2.044495           -3.083445
 H          -13.346535           -1.244453           -3.584133
 H          -11.004349           -0.509220           -3.824419

