116

 C           20.425455           -1.186422           -4.095103
 C           20.502467           -2.092414           -2.963741
 C           19.457122           -2.231044           -2.115827
 C           18.223548           -1.476849           -2.309902
 C           17.154706           -1.603280           -1.460685
 C           15.942165           -0.852435           -1.663959
 C           14.853797           -0.975071           -0.807017
 C           13.665640           -0.230894           -1.017407
 C           12.551898           -0.348984           -0.148963
 C           11.390271            0.385667           -0.362511
 C           10.253381            0.273434            0.514237
 C            9.111535            1.002228            0.300112
 C            7.956163            0.893023            1.179540
 C            6.829369            1.618076            0.956258
 C            5.645725            1.497069            1.836285
 C            5.816175            1.742088            3.260342
 C            4.769465            1.627696            4.111341
 C            3.443851            1.257141            3.635453
 C            2.370129            1.130059            4.488374
 C            1.071902            0.767935            4.000813
 C           -0.031911            0.636063            4.858794
 C           -1.297125            0.278735            4.366055
 C           -2.434697            0.141046            5.227868
 C           -3.669877           -0.210182            4.730441
 C           -4.840156           -0.353259            5.586375
 C           -6.050516           -0.684660            5.076949
 C           -6.217703           -0.905225            3.649460
 C           -7.563072           -1.227370            3.125108
 C           -8.132280           -0.467741            2.152750
 C           -9.437424           -0.799484            1.601034
 C          -10.012576           -0.046459            0.609819
 C          -11.296495           -0.390816            0.057409
 C          -11.881484            0.367684           -0.951026
 C          -13.147289            0.024368           -1.486651
 C          -13.751864            0.795454           -2.511213
 C          -14.996620            0.455492           -3.028752
 C          -15.621953            1.233006           -4.067921
 C          -16.849816            0.892165           -4.573166
 C          -17.494576            1.670432           -5.625241
 C          -18.707321            1.318958           -6.111461
 C          -19.403204            0.153014           -5.598569
 C          -18.853806           -0.607422           -4.623465
 C          -17.549510           -0.281185           -4.057165
 C          -16.978036           -1.040118           -3.068581
 C          -15.689358           -0.707222           -2.516967
 C          -15.102725           -1.471421           -1.513633
 C          -13.834524           -1.132448           -0.977287
 C          -13.227016           -1.901905            0.047145
 C          -11.984479           -1.555941            0.569161
 C          -11.354623           -2.326561            1.611682
 C          -10.130179           -1.974947            2.119429
 C           -9.475941           -2.743455            3.173174
 C           -8.261075           -2.391328            3.653015
 C           -5.153147           -0.799926            2.809112
 C           -3.834158           -0.446893            3.305541
 C           -2.755229           -0.322543            2.459464
 C           -1.462877            0.043329            2.955720
 C           -0.361610            0.177773            2.096903
 C            0.902318            0.534635            2.590643
 C            2.032292            0.671307            1.721440
 C            3.270991            1.019919            2.211526
 C            4.426345            1.156506            1.339909
 C            6.755067            2.533663           -0.175065
 C            7.800202            2.672228           -1.021885
 C            9.032967            1.914587           -0.836799
 C           10.098494            2.039539           -1.690422
 C           11.311565            1.287805           -1.490768
 C           12.399089            1.409512           -2.349515
 C           13.587888            0.665927           -2.139764
 C           14.702875            0.783765           -3.007461
 C           15.864654            0.049779           -2.792457
 C           17.003961            0.161161           -3.667069
 C           18.145616           -0.566027           -3.448637
 C           19.306244           -0.461953           -4.326262
 H           21.296953           -1.115226           -4.744208
 H           21.427246           -2.650934           -2.827411
 H           19.500049           -2.907731           -1.263022
 H           17.196527           -2.278900           -0.606615
 H           14.904464           -1.653165            0.044649
 H           12.616745           -1.030882            0.698680
 H           10.327958           -0.412727            1.357619
 H            8.027358            0.198871            2.017297
 H            6.809616            2.024529            3.608949
 H            4.885286            1.810319            5.179723
 H            2.488576            1.303329            5.557820
 H            0.096070            0.814337            5.926205
 H           -2.297800            0.323897            6.293464
 H           -4.703141           -0.180331            6.653916
 H           -6.930941           -0.785898            5.711317
 H           -7.629004            0.413902            1.754470
 H           -9.508423            0.834887            0.213711
 H          -11.365123            1.244022           -1.342424
 H          -13.222872            1.668922           -2.891996
 H          -15.086110            2.105264           -4.441785
 H          -16.960092            2.542546           -6.000554
 H          -19.197045            1.893082           -6.896526
 H          -20.376294           -0.082127           -6.027119
 H          -19.363790           -1.485462           -4.228898
 H          -17.488107           -1.918440           -2.673762
 H          -15.620033           -2.348462           -1.125445
 H          -13.751983           -2.778430            0.426244
 H          -11.883553           -3.202833            1.986104
 H          -10.005947           -3.615592            3.556193
 H           -7.763472           -2.966606            4.433409
 H           -5.257550           -0.977358            1.738350
 H           -2.865180           -0.499876            1.389842
 H           -0.490137            0.002034            1.029047
 H            1.887409            0.490328            0.656650
 H            4.280607            0.965526            0.276436
 H            5.832761            3.099818           -0.304871
 H            7.756855            3.355198           -1.870426
 H           10.053490            2.714433           -2.545142
 H           12.346840            2.086288           -3.202118
 H           14.638884            1.464650           -3.855907
 H           16.930619            0.844700           -4.512627
 H           19.233305            0.221211           -5.171703

