116

 C           -8.731134            6.371999            3.414333
 C           -7.548040            6.485958            2.582856
 C           -7.059833            5.409986            1.923385
 C           -7.700515            4.102447            2.021575
 C           -8.894936            3.992699            2.852106
 C           -9.372529            5.187403            3.540375
 C           -9.537017            2.788413            2.977366
 C           -9.062028            1.610698            2.300376
 C           -9.717763            0.390633            2.431466
 C           -9.253282           -0.769945            1.765314
 C           -9.911732           -2.018427            1.897475
 C           -9.448339           -3.150779            1.236860
 C          -10.108680           -4.425097            1.363348
 C           -9.646770           -5.536527            0.706850
 C          -10.306075           -6.832755            0.824072
 C           -9.835586           -7.918588            0.167806
 C           -8.656952           -7.824495           -0.674214
 C           -8.003515           -6.648597           -0.820690
 C           -8.461233           -5.441896           -0.140573
 C           -7.812156           -4.242101           -0.278862
 C           -8.273820           -3.056554            0.396964
 C           -7.620951           -1.835759            0.261374
 C           -8.083702           -0.676199            0.933842
 C           -7.422464            0.571775            0.809389
 C           -7.880141            1.706773            1.472073
 C           -7.216129            2.990458            1.366316
 C           -5.988448            3.083306            0.539389
 C           -6.132905            3.442512           -0.862527
 C           -5.043472            3.567399           -1.656509
 C           -3.700547            3.340567           -1.139377
 C           -2.581617            3.460310           -1.932941
 C           -1.268378            3.229984           -1.406265
 C           -0.119129            3.343900           -2.204775
 C            1.159919            3.110701           -1.674183
 C            2.343130            3.219633           -2.475939
 C            3.591086            2.984434           -1.943275
 C            4.805245            3.088518           -2.741499
 C            6.024445            2.856027           -2.200624
 C            6.154378            2.500993           -0.796283
 C            7.518096            2.298054           -0.249630
 C            8.095373            0.970198           -0.307430
 C            7.429824           -0.110317           -0.878318
 C            8.011233           -1.403084           -0.916232
 C            7.337402           -2.507758           -1.495936
 C            7.915079           -3.773106           -1.520214
 C            7.239748           -4.903784           -2.103688
 C            7.815893           -6.147866           -2.124206
 C            7.141928           -7.299709           -2.713170
 C            7.725613           -8.520489           -2.726215
 C            9.043607           -8.718907           -2.151300
 C            9.716550           -7.687676           -1.589999
 C            9.141646           -6.347475           -1.545423
 C            9.808006           -5.290047           -0.981719
 C            9.228535           -3.971432           -0.946522
 C            9.898869           -2.893370           -0.378853
 C            9.318279           -1.600544           -0.349825
 C            9.993084           -0.494937            0.223913
 C            9.413556            0.769422            0.253585
 C           10.102044            1.890477            0.837168
 C            9.536366            3.138297            0.869546
 C           10.230287            4.275628            1.464801
 C            9.663723            5.503866            1.495592
 C            8.346488            5.723475            0.929384
 C            7.656659            4.704337            0.366978
 C            8.207185            3.353962            0.308141
 C            5.054068            2.382209           -0.008387
 C            3.722986            2.618692           -0.542212
 C            2.600384            2.511688            0.247151
 C            1.293678            2.750925           -0.287127
 C            0.146054            2.640154            0.512160
 C           -1.131440            2.870833           -0.019299
 C           -2.307701            2.753992            0.789027
 C           -3.559373            2.975185            0.260977
 C           -4.759595            2.857313            1.072506
 H           -9.076779            7.268613            3.926590
 H           -7.073266            7.463471            2.510836
 H           -6.170618            5.486515            1.294608
 H          -10.263737            5.083355            4.158218
 H          -10.428418            2.692631            3.596873
 H          -10.607519            0.316379            3.056253
 H          -10.795814           -2.080154            2.531075
 H          -10.991666           -4.478498            1.999938
 H          -11.189519           -6.887782            1.459335
 H          -10.320448           -8.890467            0.247957
 H           -8.323883           -8.730711           -1.177857
 H           -7.117312           -6.561378           -1.448493
 H           -6.925776           -4.155398           -0.906975
 H           -6.735963           -1.759143           -0.370790
 H           -6.534424            0.630136            0.175964
 H           -7.142862            3.607218           -1.238107
 H           -5.135991            3.842383           -2.707057
 H           -2.672775            3.733254           -2.983992
 H           -0.221559            3.616708           -3.254879
 H            2.229663            3.494606           -3.524283
 H            4.693258            3.362365           -3.790466
 H            6.939803            2.929116           -2.787989
 H            6.435784            0.026961           -1.309875
 H            6.348058           -2.353081           -1.927176
 H            6.250529           -4.739171           -2.530355
 H            6.153053           -7.134415           -3.139673
 H            7.231228           -9.386411           -3.163831
 H            9.463720           -9.722944           -2.190344
 H           10.706085           -7.821194           -1.154056
 H           10.797452           -5.421854           -0.544242
 H           10.888253           -3.033565            0.055125
 H           10.985278           -0.648140            0.647748
 H           11.092688            1.715270            1.256057
 H           11.219453            4.092236            1.882785
 H           10.170794            6.358353            1.941243
 H            7.939077            6.732497            0.973925
 H            6.665352            4.860783           -0.062855
 H            5.136925            2.113240            1.045166
 H            2.685070            2.241061            1.299713
 H            0.248739            2.369245            1.562783
 H           -2.187061            2.483171            1.838033
 H           -4.637188            2.585927            2.121565

