116

 C           -8.179439            6.538824           -3.483407
 C           -6.992390            5.858822           -3.968047
 C           -6.602241            4.679864           -3.430314
 C           -7.359223            4.057453           -2.350001
 C           -6.974214            2.867554           -1.787999
 C           -7.726308            2.255688           -0.722237
 C           -8.917210            2.928078           -0.252074
 C           -9.296938            4.178626           -0.858747
 C           -8.556977            4.737550           -1.868128
 C           -8.924665            6.006133           -2.487306
 C           -9.669185            2.365502            0.772827
 C           -9.294715            1.137116            1.370669
 C          -10.062102            0.565448            2.417065
 C           -9.697836           -0.641201            3.004226
 C          -10.466102           -1.230992            4.070490
 C          -10.098033           -2.422396            4.640617
 C          -10.864611           -3.028280            5.724002
 C          -10.486888           -4.205281            6.274608
 C           -9.305163           -4.901472            5.800263
 C           -8.555035           -4.387591            4.797955
 C           -8.907251           -3.121301            4.165220
 C           -8.156350           -2.582321            3.152354
 C           -8.514944           -1.329831            2.537554
 C           -7.754255           -0.772997            1.514696
 C           -8.112959            0.458413            0.910020
 C           -7.341734            1.045405           -0.135446
 C           -6.108383            0.362291           -0.597304
 C           -6.226922           -0.614651           -1.668568
 C           -5.129458           -1.247690           -2.145521
 C           -3.804097           -0.976419           -1.605034
 C           -2.677756           -1.605334           -2.086062
 C           -1.380960           -1.323948           -1.544011
 C           -0.225441           -1.956895           -2.028323
 C            1.039188           -1.669506           -1.490357
 C            2.227020           -2.308007           -1.975389
 C            3.462429           -2.017480           -1.441125
 C            4.680055           -2.656649           -1.921420
 C            5.887328           -2.365102           -1.382594
 C            5.998578           -1.400617           -0.299234
 C            7.344796           -1.140776            0.267621
 C            8.150748           -0.109815           -0.298023
 C            7.717523            0.669585           -1.400480
 C            8.514006            1.675533           -1.937657
 C            8.078908            2.467951           -3.059261
 C            8.866425            3.463131           -3.578530
 C            8.437870            4.274363           -4.712603
 C            9.226046            5.256713           -5.207705
 C           10.525580            5.531133           -4.622645
 C           10.977889            4.808938           -3.571448
 C           10.175858            3.736465           -2.992657
 C           10.618068            2.994276           -1.927943
 C            9.813622            1.941869           -1.361984
 C           10.251357            1.181990           -0.282849
 C            9.447128            0.152148            0.267862
 C            9.895301           -0.620995            1.366989
 C            9.106972           -1.629387            1.909300
 C            9.560878           -2.412725            3.030300
 C            8.785104           -3.405621            3.569744
 C            9.227630           -4.201679            4.709254
 C            8.445574           -5.178592            5.224348
 C            7.141983           -5.464582            4.654117
 C            6.678632           -4.757236            3.597608
 C            7.471429           -3.688139            3.000802
 C            7.014479           -2.955860            1.935557
 C            7.801908           -1.901455            1.348861
 C            4.895125           -0.769907            0.181378
 C            3.576052           -1.047729           -0.363620
 C            2.447064           -0.423695            0.118063
 C            1.152251           -0.709799           -0.423705
 C           -0.003361           -0.078109            0.061723
 C           -1.267156           -0.365088           -0.476544
 C           -2.452445            0.276749            0.008967
 C           -3.688364           -0.007190           -0.527110
 C           -4.897218            0.645141           -0.050036
 H           -8.442916            7.486454           -3.950885
 H           -6.434940            6.331858           -4.774855
 H           -5.713834            4.156863           -3.783543
 H           -6.077833            2.353014           -2.141024
 H          -10.195383            4.670903           -0.487283
 H           -9.819190            6.503425           -2.114505
 H          -10.565100            2.872227            1.130527
 H          -10.952799            1.090853            2.760803
 H          -11.353047           -0.698619            4.412664
 H          -11.749455           -2.494693            6.069093
 H          -11.051434           -4.665506            7.084084
 H           -9.050039           -5.845042            6.279930
 H           -7.665964           -4.899320            4.431074
 H           -7.264478           -3.090947            2.785673
 H           -6.857999           -1.289835            1.164675
 H           -7.223816           -0.810113           -2.064511
 H           -5.200511           -1.979581           -2.949946
 H           -2.749319           -2.333006           -2.894319
 H           -0.311176           -2.683448           -2.836071
 H            2.126885           -3.033955           -2.782153
 H            4.579030           -3.379155           -2.731107
 H            6.805466           -2.835984           -1.734814
 H            6.733875            0.470695           -1.831505
 H            7.098604            2.251173           -3.484213
 H            7.460265            4.056960           -5.141458
 H            8.914945            5.868482           -6.052921
 H           11.115554            6.334557           -5.061121
 H           11.951228            5.002956           -3.122281
 H           11.593397            3.184766           -1.481114
 H           11.229765            1.374298            0.156819
 H           10.877809           -0.412798            1.789771
 H           10.545238           -2.188809            3.440711
 H           10.208597           -3.976152            5.125566
 H            8.764706           -5.777299            6.076245
 H            6.558487           -6.264417            5.107098
 H            5.702252           -4.960011            3.158185
 H            6.031225           -3.158486            1.505452
 H            4.965870           -0.041674            0.990211
 H            2.517636            0.303779            0.926916
 H            0.082537            0.648107            0.870164
 H           -2.351200            1.001745            0.816781
 H           -4.795815            1.371318            0.757378

