104

 C          -18.537922           -3.602523           -1.388090
 C          -17.633990           -2.829748           -2.037070
 C          -16.368514           -2.468919           -1.412969
 C          -15.437491           -1.684702           -2.056253
 C          -14.196904           -1.338607           -1.428452
 C          -13.241533           -0.540002           -2.075904
 C          -12.029669           -0.208066           -1.450151
 C          -11.046305            0.606150           -2.100534
 C           -9.861038            0.926202           -1.477675
 C           -8.849975            1.752208           -2.122884
 C           -7.688054            2.054704           -1.497731
 C           -7.417064            1.558182           -0.157610
 C           -6.121038            1.899114            0.467609
 C           -6.131751            2.564443            1.761082
 C           -4.971810            2.879558            2.383695
 C           -3.683239            2.565828            1.782196
 C           -2.494370            2.877393            2.402492
 C           -1.235820            2.561406            1.795089
 C           -0.017783            2.875720            2.418000
 C            1.208320            2.560913            1.812187
 C            2.458704            2.876275            2.437188
 C            3.655723            2.564139            1.833615
 C            4.936067            2.876881            2.453288
 C            6.104290            2.561151            1.846970
 C            6.111376            1.896355            0.553159
 C            7.416183            1.554988           -0.053070
 C            7.709353            2.055236           -1.387115
 C            8.881247            1.754043           -1.993845
 C            9.881202            0.925566           -1.334471
 C           11.077090            0.608163           -1.937775
 C           12.049500           -0.208066           -1.273297
 C           13.272458           -0.536405           -1.878549
 C           14.217005           -1.336811           -1.217235
 C           15.468902           -1.678908           -1.823984
 C           16.389134           -2.464931           -1.167304
 C           17.665829           -2.821902           -1.770120
 C           18.558748           -3.596765           -1.108420
 C           18.265971           -4.092570            0.221415
 C           17.093349           -3.791183            0.829299
 C           16.095436           -2.962747            0.167075
 C           14.898205           -2.646024            0.768514
 C           13.926695           -1.829790            0.103495
 C           12.704009           -1.501769            0.708797
 C           11.759971           -0.700924            0.047607
 C           10.509654           -0.359270            0.656275
 C            9.589912            0.428120            0.000179
 C            8.317718            0.780455            0.607088
 C            4.943404            1.586193           -0.069563
 C            3.662617            1.902733            0.538837
 C            2.472898            1.589161           -0.079106
 C            1.216471            1.905067            0.530912
 C           -0.000542            1.590325           -0.091975
 C           -1.226364            1.905554            0.513952
 C           -2.473965            1.590062           -0.113486
 C           -3.672348            1.904236            0.487710
 C           -4.944463            1.588132           -0.138550
 C           -8.330586            0.787350            0.490337
 C           -9.592699            0.433729           -0.136454
 C          -10.523810           -0.351351            0.506502
 C          -11.763152           -0.695625           -0.122499
 C          -12.718431           -1.494726            0.524885
 C          -13.929755           -1.826044           -0.100708
 C          -14.912387           -2.640736            0.549998
 C          -16.098247           -2.961035           -0.071427
 C          -17.107089           -3.787922            0.576162
 C          -18.268372           -4.092781           -0.051249
 H          -19.486707           -3.877465           -1.846207
 H          -17.822192           -2.454385           -3.042145
 H          -15.626716           -1.309728           -3.061623
 H          -13.443434           -0.171317           -3.081242
 H          -11.260164            0.967946           -3.106019
 H           -9.065061            2.116498           -3.127556
 H           -6.928038            2.676606           -1.970464
 H           -7.100786            2.800386            2.200587
 H           -4.965771            3.377371            3.353425
 H           -2.487861            3.373221            3.372876
 H           -0.024497            3.372767            3.387778
 H            2.438753            3.372057            3.407410
 H            4.916668            3.374401            3.422993
 H            7.067219            2.796159            2.300292
 H            6.957322            2.678735           -1.870337
 H            9.113099            2.121199           -2.993758
 H           11.308273            0.973591           -2.938125
 H           13.492037           -0.163643           -2.878688
 H           15.675779           -1.299649           -2.824274
 H           17.871548           -2.442193           -2.770141
 H           19.515639           -3.869181           -1.550936
 H           19.018195           -4.711321            0.708206
 H           16.858519           -4.156545            1.828285
 H           14.664351           -3.012180            1.767813
 H           12.482903           -1.874624            1.708564
 H           10.301360           -0.739781            1.656110
 H            8.110035            0.392721            1.604602
 H            4.932039            1.082661           -1.036439
 H            2.464995            1.091399           -1.048668
 H            0.006037            1.093254           -1.061757
 H           -2.452814            1.092117           -1.082754
 H           -4.919710            1.084330           -1.105032
 H           -8.139913            0.402987            1.492564
 H          -10.332818           -0.728070            1.511236
 H          -12.514828           -1.863499            1.529893
 H          -14.696093           -3.002639            1.554811
 H          -16.889778           -4.149024            1.580672
 H          -19.028747           -4.710152            0.424466

