96

 C            5.874201            6.474300            3.121768
 C            6.225618            5.278927            3.776484
 C            6.120814            4.057017            3.115421
 C            5.650686            4.021718            1.765650
 C            5.303709            5.231748            1.113606
 C            5.422158            6.457343            1.811793
 C            4.836283            5.173176           -0.251318
 C            4.720381            3.983775           -0.901343
 C            5.059987            2.734752           -0.259236
 C            5.525741            2.765024            1.065913
 C            5.883628            1.539348            1.741908
 C            5.767912            0.335301            1.084344
 C            5.300410            0.278284           -0.264935
 C            5.204471           -0.975869           -0.945284
 C            4.765286           -1.033368           -2.248382
 C            4.717742           -2.324245           -2.977358
 C            5.814842           -2.752296           -3.657482
 C            5.806391           -4.011949           -4.366826
 C            4.704018           -4.798307           -4.364834
 C            3.497001           -4.394408           -3.658128
 C            2.373127           -5.189581           -3.652476
 C            1.180035           -4.785905           -2.971467
 C            0.030259           -5.589753           -2.964052
 C           -1.135555           -5.178339           -2.300147
 C           -2.312939           -5.992392           -2.277584
 C           -3.453274           -5.582590           -1.623511
 C           -4.643894           -6.419246           -1.585621
 C           -5.761563           -6.011872           -0.938474
 C           -5.803459           -4.727417           -0.276396
 C           -4.723568           -3.900567           -0.283101
 C           -4.807191           -2.579688            0.386120
 C           -4.634562           -2.507175            1.802014
 C           -4.753762           -1.303540            2.449495
 C           -5.053787           -0.102829            1.732471
 C           -5.209472           -0.176522            0.323563
 C           -5.079110           -1.439118           -0.334892
 C           -5.504784            1.003631           -0.426475
 C           -5.651099            2.220972            0.199912
 C           -5.961278            3.436889           -0.547607
 C           -6.103660            4.630222            0.066494
 C           -5.951898            4.764905            1.511322
 C           -5.654809            3.596428            2.279724
 C           -5.509785            3.701860            3.686042
 C           -5.655129            4.964952            4.308049
 C           -5.937903            6.089173            3.548499
 C           -6.088430            5.994450            2.152358
 C           -5.215527            2.507902            4.442992
 C           -5.070967            1.304750            3.824833
 C           -5.206587            1.169409            2.392738
 C           -5.500597            2.314421            1.633788
 C           -3.481491           -4.293622           -0.949005
 C           -2.356165           -3.499578           -0.955657
 C           -1.154639           -3.910576           -1.619765
 C           -0.001124           -3.109678           -1.622785
 C            1.167121           -3.522205           -2.283098
 C            2.352994           -2.717052           -2.291766
 C            3.491814           -3.122298           -2.951391
 C            4.382027            0.162794           -2.928071
 C            4.467861            1.374479           -2.290272
 C            4.938360            1.471546           -0.942897
 C            6.366371            1.619406            3.118204
 C            6.478640            2.799480            3.763043
 H            5.961241            7.418667            3.658465
 H            6.579650            5.318008            4.805472
 H            5.153518            7.385760            1.310250
 H            4.579730            6.111057           -0.743780
 H            4.366059            3.946707           -1.933681
 H            6.032466           -0.597985            1.581037
 H            5.492514           -1.884300           -0.416197
 H            6.729728           -2.160696           -3.684198
 H            6.714343           -4.300030           -4.894897
 H            4.682186           -5.752030           -4.890496
 H            2.368538           -6.147715           -4.171724
 H            0.042438           -6.548207           -3.481799
 H           -2.283284           -6.952553           -2.792238
 H           -4.597378           -7.381465           -2.093917
 H           -6.657582           -6.629756           -0.898714
 H           -6.730284           -4.442851            0.221272
 H           -4.410854           -3.421984            2.350125
 H           -4.622264           -1.245397            3.531984
 H           -5.207540           -1.483893           -1.416443
 H           -5.613374            0.917135           -1.507400
 H           -6.074635            3.337586           -1.627386
 H           -6.337950            5.534460           -0.495730
 H           -5.541540            5.044745            5.388071
 H           -6.046126            7.061091            4.029255
 H           -6.312021            6.891591            1.577284
 H           -5.113442            2.601166            5.524140
 H           -4.848343            0.405546            4.403275
 H           -2.357569           -2.531221           -0.450116
 H           -0.013155           -2.150716           -1.103201
 H            2.331157           -1.765197           -1.756320
 H            4.028669            0.091000           -3.956332
 H            4.177889            2.290854           -2.808466
 H            6.634042            0.680225            3.603036
 H            6.841495            2.854202            4.789754

