96

 C            4.401007            0.055213           -4.868623
 C            4.344243            1.347984           -4.277138
 C            4.515981            1.493846           -2.923407
 C            4.757605            0.357504           -2.086168
 C            4.803861           -0.933216           -2.673087
 C            4.620895           -1.051668           -4.086995
 C            5.038806           -2.085886           -1.839920
 C            5.216183           -1.917897           -0.457276
 C            5.460381           -3.065909            0.385508
 C            5.647525           -2.906957            1.793785
 C            5.888839           -4.025280            2.589141
 C            5.947612           -5.307872            2.013530
 C            5.766896           -5.479897            0.650440
 C            5.520824           -4.363140           -0.183471
 C            5.329925           -4.505350           -1.607289
 C            5.100571           -3.419082           -2.392713
 C            5.578998           -1.563871            2.356983
 C            5.355591           -0.485399            1.577765
 C            5.169099           -0.600272            0.133278
 C            4.957637            0.506276           -0.670391
 C            4.978235            1.873570           -0.091475
 C            6.152791            2.557555           -0.030049
 C            6.209068            3.887305            0.533387
 C            5.091683            4.481445            1.016182
 C            3.804317            3.802084            0.977370
 C            2.663861            4.400223            1.465445
 C            1.395705            3.736619            1.418380
 C            0.228825            4.340219            1.912452
 C           -1.008741            3.681516            1.850948
 C           -2.207893            4.284647            2.350648
 C           -3.420118            3.635364            2.279562
 C           -4.638261            4.247959            2.790996
 C           -5.827772            3.604948            2.714379
 C           -5.919344            2.291438            2.118513
 C           -4.814891            1.668931            1.624686
 C           -4.947498            0.322217            1.013445
 C           -5.141833            0.184340           -0.349830
 C           -5.159794            1.334249           -1.250954
 C           -5.363473            1.198765           -2.577739
 C           -5.580845           -0.109459           -3.183419
 C           -5.564231           -1.262682           -2.338898
 C           -5.772931           -2.545033           -2.906427
 C           -5.994336           -2.663912           -4.299252
 C           -6.008282           -1.535513           -5.103465
 C           -5.802521           -0.257806           -4.550993
 C           -5.754716           -3.698779           -2.038928
 C           -5.544593           -3.563302           -0.702149
 C           -5.332053           -2.268655           -0.097431
 C           -5.341463           -1.129059           -0.917463
 C           -5.114717           -2.124300            1.320230
 C           -5.099765           -3.254141            2.197661
 C           -4.893250           -3.101938            3.546239
 C           -4.680992           -1.806416            4.094827
 C           -4.689659           -0.703326            3.278442
 C           -4.915478           -0.831835            1.870225
 C           -3.500214            2.309691            1.685122
 C           -2.356678            1.709960            1.206481
 C           -1.083937            2.366437            1.271666
 C            0.084863            1.760685            0.783519
 C            1.323964            2.418646            0.845481
 C            2.524588            1.812326            0.350214
 C            3.735691            2.465811            0.406043
 H            4.266475           -0.038716           -5.945073
 H            4.162253            2.212594           -4.913686
 H            4.467888            2.483041           -2.463827
 H            4.661251           -2.045442           -4.536539
 H            6.034539           -3.915224            3.662425
 H            6.137598           -6.169435            2.653109
 H            5.812693           -6.474917            0.211340
 H            5.376238           -5.508025           -2.031240
 H            4.957109           -3.532144           -3.469919
 H            5.714108           -1.466894            3.434403
 H            5.302675            0.518258            2.006947
 H            7.080233            2.121799           -0.402788
 H            7.177555            4.386016            0.553844
 H            5.119794            5.482130            1.445996
 H            2.705188            5.398849            1.899352
 H            0.284738            5.336451            2.349728
 H           -2.137417            5.278485            2.791755
 H           -4.554646            5.239050            3.235589
 H           -6.746088            4.051454            3.094475
 H           -6.900495            1.817409            2.077545
 H           -4.996058            2.317982           -0.803912
 H           -5.370892            2.063487           -3.241602
 H           -6.153144           -3.649714           -4.732785
 H           -6.179643           -1.629783           -6.175439
 H           -5.819049            0.613903           -5.202967
 H           -5.915124           -4.678405           -2.488107
 H           -5.532175           -4.439719           -0.049802
 H           -5.258348           -4.246762            1.772378
 H           -4.887226           -3.964080            4.211345
 H           -4.511434           -1.707429            5.165962
 H           -4.520776            0.292204            3.693713
 H           -2.397752            0.712489            0.761632
 H            0.029404            0.762068            0.347399
 H            2.454737            0.808999           -0.077572

