80

 C            5.273276            4.347612           -0.185672
 C            5.088343            3.588037           -1.392354
 C            5.007078            2.228932           -1.349207
 C            5.098400            1.516869           -0.094106
 C            5.272226            2.277149            1.107739
 C            5.362494            3.717196            1.018185
 C            5.350272            1.620608            2.343321
 C            5.245894            0.225314            2.422974
 C            5.309334           -0.458762            3.694889
 C            5.193232           -1.813963            3.763810
 C            5.006559           -2.589615            2.567744
 C            4.951219           -1.981721            1.349970
 C            5.071259           -0.545931            1.228490
 C            5.016012            0.111197           -0.018117
 C            4.886320           -0.686425           -1.263835
 C            5.999262           -1.094937           -1.930487
 C            5.892937           -1.873792           -3.143746
 C            4.681527           -2.214682           -3.644307
 C            3.452734           -1.807760           -2.977626
 C            2.216637           -2.149747           -3.479169
 C            1.009097           -1.748564           -2.821839
 C           -0.254706           -2.091970           -3.325775
 C           -1.428717           -1.691091           -2.669301
 C           -2.725927           -2.031515           -3.171102
 C           -3.872730           -1.634003           -2.520133
 C           -5.192573           -1.977034           -3.029896
 C           -6.315042           -1.581538           -2.383110
 C           -6.232731           -0.807414           -1.164897
 C           -5.027432           -0.457668           -0.640722
 C           -4.962805            0.334832            0.613443
 C           -4.940239           -0.328922            1.857446
 C           -4.925886           -1.770910            1.962873
 C           -4.902959           -2.385314            3.178411
 C           -4.898115           -1.609611            4.389078
 C           -4.909082           -0.248829            4.335489
 C           -4.924676            0.441333            3.065303
 C           -4.923071            1.841210            2.999972
 C           -4.923380            2.502309            1.764249
 C           -4.905735            3.945798            1.687568
 C           -4.894190            4.579439            0.482107
 C           -4.900896            3.820278           -0.738846
 C           -4.925587            2.458663           -0.707087
 C           -4.939654            1.743335            0.549361
 C           -3.779944           -0.853601           -1.296204
 C           -2.541240           -0.515683           -0.798417
 C           -1.335461           -0.916880           -1.460026
 C           -0.070788           -0.573002           -0.956842
 C            1.103488           -0.972880           -1.613487
 C            2.400030           -0.627948           -1.110116
 C            3.549663           -1.023417           -1.756366
 H            5.337547            5.431690           -0.264170
 H            5.014000            4.128896           -2.334587
 H            4.865747            1.645270           -2.260695
 H            5.502103            4.277219            1.941617
 H            5.491945            2.202346            3.253711
 H            5.451228            0.143782            4.590797
 H            5.237130           -2.339071            4.716618
 H            4.909869           -3.669951            2.664926
 H            4.809346           -2.563623            0.437391
 H            6.998138           -0.848240           -1.570480
 H            6.819505           -2.172019           -3.633052
 H            4.586888           -2.801280           -4.557073
 H            2.131892           -2.736844           -4.392974
 H           -0.325819           -2.678694           -4.240859
 H           -2.783310           -2.616962           -4.088094
 H           -5.239949           -2.561134           -3.947912
 H           -7.308315           -1.830979           -2.754514
 H           -7.166341           -0.516019           -0.683576
 H           -4.928679           -2.352638            1.039248
 H           -4.886076           -3.470887            3.262772
 H           -4.884044           -2.139567            5.340110
 H           -4.905160            0.353684            5.242548
 H           -4.919688            2.422844            3.921343
 H           -4.900683            4.505540            2.621628
 H           -4.878225            5.665948            0.412954
 H           -4.883865            4.363282           -1.682652
 H           -4.930064            1.875086           -1.629549
 H           -2.453223            0.070719            0.119668
 H            0.000212            0.014688           -0.040431
 H            2.454362           -0.037766           -0.191840

