80

 C            5.743835            6.676867           -0.271376
 C            5.405386            5.723094           -1.183394
 C            5.343471            4.329314           -0.806152
 C            4.995737            3.330965           -1.728082
 C            4.950341            1.983119           -1.345237
 C            4.596200            0.939249           -2.280615
 C            4.580031           -0.366780           -1.898265
 C            4.921082           -0.734632           -0.544784
 C            4.950623           -2.175132           -0.193729
 C            6.131310           -2.849542           -0.223894
 C            6.194932           -4.254144            0.111915
 C            5.076955           -4.929123            0.470350
 C            3.783613           -4.262648            0.526559
 C            2.644936           -4.941057            0.900217
 C            1.370685           -4.288846            0.947105
 C            0.205588           -4.972580            1.327352
 C           -1.038029           -4.322501            1.359535
 C           -2.234467           -5.004686            1.751953
 C           -3.451190           -4.359865            1.777939
 C           -4.665235           -5.051310            2.187591
 C           -5.859124           -4.412276            2.208596
 C           -5.958419           -3.023815            1.818804
 C           -4.858864           -2.326660            1.425077
 C           -4.996692           -0.905871            1.023084
 C           -5.044057            0.094660            2.062635
 C           -5.217272            1.407035            1.746984
 C           -5.357134            1.827880            0.371040
 C           -5.556131            3.172819            0.029432
 C           -5.692992            3.561677           -1.311360
 C           -5.907088            4.941607           -1.683708
 C           -6.038793            5.297180           -2.992278
 C           -5.966761            4.304058           -4.030352
 C           -5.766400            2.992562           -3.720691
 C           -5.622755            2.571791           -2.345221
 C           -5.421774            1.226486           -2.003127
 C           -5.292530            0.836644           -0.662046
 C           -5.106457           -0.546036           -0.290200
 C           -3.540136           -2.959751            1.392401
 C           -2.399029           -2.285674            1.017476
 C           -1.121118           -2.933854            0.991755
 C            0.046159           -2.248536            0.617713
 C            1.291325           -2.896781            0.591113
 C            2.491409           -2.207655            0.217462
 C            3.708144           -2.851542            0.179594
 C            5.240179            0.224318            0.374399
 C            5.265776            1.619684            0.004687
 C            5.604190            2.618835            0.929076
 C            5.649133            3.967367            0.546383
 C            6.001290            5.011251            1.482383
 C            6.046305            6.314283            1.087420
 H            5.793994            7.729482           -0.545316
 H            5.175118            5.984023           -2.215388
 H            4.760231            3.606064           -2.755804
 H            4.345263            1.231160           -3.300122
 H            4.317047           -1.162973           -2.594147
 H            7.059603           -2.351043           -0.502147
 H            7.168340           -4.741040            0.066235
 H            5.108020           -5.987307            0.726166
 H            2.692592           -5.996328            1.167922
 H            0.267205           -6.025118            1.601839
 H           -2.158874           -6.054576            2.034048
 H           -4.574088           -6.097499            2.476310
 H           -6.774344           -4.918045            2.514026
 H           -6.942895           -2.557375            1.847333
 H           -4.937805           -0.235243            3.095660
 H           -5.256546            2.172704            2.521472
 H           -5.607258            3.925368            0.815900
 H           -5.960470            5.683497           -0.888117
 H           -6.200986            6.333711           -3.283632
 H           -6.077361            4.631359           -5.063158
 H           -5.710358            2.230527           -4.496780
 H           -5.368319            0.474013           -2.789443
 H           -5.064267           -1.293058           -1.082592
 H           -2.445480           -1.233145            0.729004
 H           -0.015725           -1.194691            0.342906
 H            2.415878           -1.147988           -0.036673
 H            5.487886           -0.042347            1.401582
 H            5.838107            2.343421            1.957107
 H            6.228472            4.722903            2.507778
 H            6.310836            7.108294            1.784313

