102

 C            5.319456           -0.626374           -0.656069
 C            5.094033           -1.531309            0.334389
 C            4.846619           -1.109592            1.702789
 C            4.677908           -2.169540            2.726232
 C            5.732185           -2.539893            3.501073
 C            5.595768           -3.582876            4.493218
 C            4.412211           -4.216593            4.671822
 C            3.244326           -3.860948            3.878614
 C            2.035966           -4.495805            4.058857
 C            0.884789           -4.138313            3.285597
 C           -0.350472           -4.778776            3.465162
 C           -1.472792           -4.412375            2.706239
 C           -2.741264           -5.052109            2.883665
 C           -3.840196           -4.681179            2.141158
 C           -5.132278           -5.325475            2.327054
 C           -6.209301           -4.951280            1.595995
 C           -6.101306           -3.902933            0.606303
 C           -4.919867           -3.265384            0.388558
 C           -4.837476           -2.191592           -0.631314
 C           -5.025913           -0.883068           -0.289188
 C           -4.990052            0.111621           -1.320068
 C           -5.179323            1.485621           -1.327101
 C           -5.459726            2.494778           -0.321310
 C           -5.014657            2.310109            0.999873
 C           -5.308768            3.267972            1.972366
 C           -6.038914            4.412652            1.636046
 C           -6.469974            4.605456            0.319116
 C           -6.183378            3.652642           -0.659797
 O           -5.082452            1.965538           -2.642222
 C           -4.816821            0.864771           -3.470296
 C           -4.690338            1.175882           -4.883304
 C           -5.374486            2.277685           -5.428631
 C           -5.263441            2.562910           -6.790290
 C           -4.472922            1.755505           -7.615188
 C           -3.786394            0.663408           -7.074396
 C           -3.889021            0.371390           -5.712643
 C           -4.755159           -0.288572           -2.703059
 C           -4.549433           -1.674474           -3.012159
 C           -4.585472           -2.589202           -2.005736
 C           -3.722641           -3.623834            1.149082
 C           -2.508757           -3.001388            0.959859
 C           -1.354146           -3.366519            1.725407
 C           -0.116415           -2.728868            1.543156
 C            1.005666           -3.093253            2.303705
 C            2.274659           -2.450459            2.129158
 C            3.370870           -2.809211            2.881139
 C            4.791644            0.211422            2.043415
 C            5.004239            1.195938            1.024107
 C            5.024114            2.582620            1.028048
 C            4.811881            3.614455            2.027566
 C            3.955269            3.367632            3.115395
 C            3.765023            4.352158            4.086980
 C            4.417927            5.584599            3.978909
 C            5.261891            5.836170            2.891871
 C            5.461243            4.857300            1.916813
 O            5.333470            3.050514           -0.258138
 C            5.505266            1.927452           -1.081662
 C            5.843352            2.227801           -2.462181
 C            5.417691            3.432313           -3.051428
 C            5.742798            3.711170           -4.379951
 C            6.491237            2.795881           -5.127876
 C            6.920137            1.599894           -4.542986
 C            6.602366            1.313107           -3.213762
 C            5.303118            0.773387           -0.339930
 H            5.503111           -0.927464           -1.685734
 H            5.093585           -2.602987            0.134949
 H            6.707694           -2.065983            3.393245
 H            6.475369           -3.836663            5.083589
 H            4.294658           -5.007847            5.410968
 H            1.931140           -5.288010            4.799673
 H           -0.440371           -5.572357            4.205955
 H           -2.816953           -5.845141            3.626928
 H           -5.196630           -6.115072            3.074471
 H           -7.182517           -5.422148            1.728925
 H           -6.997283           -3.641416            0.043703
 H           -5.218332           -0.574167            0.736828
 H           -4.435553            1.424855            1.261942
 H           -4.965740            3.122200            2.996079
 H           -6.270763            5.153959            2.398851
 H           -7.032512            5.500339            0.056251
 H           -6.517081            3.797276           -1.687559
 H           -5.989589            2.902631           -4.780653
 H           -5.795340            3.415434           -7.210923
 H           -4.391251            1.978136           -8.677642
 H           -3.166591            0.038665           -7.716394
 H           -3.343038           -0.472566           -5.292196
 H           -4.379373           -1.958624           -4.048975
 H           -4.431862           -3.650837           -2.198847
 H           -2.401839           -2.209392            0.215240
 H           -0.026070           -1.936687            0.798931
 H            2.350860           -1.661444            1.377217
 H            4.604008            0.539976            3.064065
 H            3.434632            2.413369            3.194602
 H            3.102774            4.159006            4.930082
 H            4.267108            6.348410            4.739865
 H            5.766529            6.797743            2.805668
 H            6.118463            5.047335            1.067436
 H            4.834342            4.142362           -2.463599
 H            5.411237            4.643768           -4.835128
 H            6.741304            3.015267           -6.164490
 H            7.507288            0.890006           -5.124354
 H            6.950617            0.387613           -2.756519

