96

 C            3.072936           -7.407568           -1.514878
 C            3.359596           -6.847944           -0.317927
 C            3.694395           -5.429307           -0.230017
 N            3.973763           -4.880461            0.944862
 C            4.277483           -3.516494            0.976910
 C            4.563942           -2.910330            2.208913
 C            4.851734           -1.537058            2.245251
 N            5.118968           -0.928556            3.472784
 C            5.371928            0.374562            3.484622
 C            5.643195            1.045706            4.751215
 C            5.887643            2.374966            4.776287
 C            5.898813            3.164517            3.560408
 C            5.667058            2.610926            2.342032
 C            5.724012            3.435598            1.111060
 C            6.932216            3.834438            0.629331
 C            7.022716            4.661689           -0.552895
 C            5.904693            5.062882           -1.203378
 C            4.583181            4.664042           -0.740117
 C            3.442604            5.061248           -1.401989
 C            2.143150            4.655017           -0.957875
 C            0.975488            5.049046           -1.629529
 C           -0.289450            4.627566           -1.191075
 C           -1.490078            5.014256           -1.868994
 C           -2.726555            4.586536           -1.438804
 C           -3.944312            4.964346           -2.141811
 C           -5.154987            4.519391           -1.729074
 C           -5.271125            3.668315           -0.565980
 C           -4.169569            3.299329            0.141805
 C           -4.318592            2.457717            1.352477
 C           -4.657862            1.036446            1.192781
 N           -4.799339            0.503710           -0.013262
 C           -5.115077           -0.852971           -0.104994
 C           -5.256803           -1.436185           -1.374290
 C           -5.577857           -2.798792           -1.468637
 N           -5.718999           -3.378090           -2.732418
 C           -6.021412           -4.668005           -2.796316
 C           -6.179273           -5.322688           -4.092128
 C           -6.488324           -6.637202           -4.158340
 C           -6.671814           -7.434951           -2.956776
 C           -6.541146           -6.894462           -1.724349
 C           -6.208231           -5.480821           -1.572018
 N           -6.080158           -4.951506           -0.362361
 C           -5.760149           -3.594183           -0.269947
 C           -5.616346           -3.011543            0.998059
 C           -5.293578           -1.648858            1.092656
 N           -5.143487           -1.068410            2.353565
 C           -4.833659            0.220898            2.417285
 C           -4.660401            0.860879            3.716765
 C           -4.338875            2.171962            3.790687
 C           -4.164929            2.977378            2.597811
 C           -2.831705            3.729118           -0.267722
 C           -1.687865            3.346468            0.396672
 C           -0.391571            3.778748           -0.034058
 C            0.775920            3.392875            0.643255
 C            2.041023            3.815591            0.206090
 C            3.239758            3.427191            0.888480
 C            4.481037            3.823727            0.443664
 C            5.382334            1.173025            2.236579
 N            5.141349            0.610535            1.060047
 C            4.862530           -0.756790            1.024161
 C            4.583604           -1.365286           -0.210324
 C            4.288607           -2.736643           -0.245586
 N            3.999820           -3.338847           -1.473136
 C            3.709437           -4.632973           -1.479457
 C            3.392246           -5.309060           -2.734469
 C            3.090464           -6.626876           -2.741344
 H            2.818026           -8.465345           -1.599102
 H            3.353153           -7.412631            0.617291
 H            4.558098           -3.499997            3.132045
 H            5.635736            0.425810            5.650824
 H            6.089253            2.897533            5.713294
 H            6.104552            4.233093            3.658220
 H            7.862542            3.539064            1.113541
 H            8.017266            4.944563           -0.895588
 H            5.957130            5.688535           -2.093939
 H            3.508060            5.692348           -2.287908
 H            1.052382            5.690139           -2.507035
 H           -1.400533            5.656127           -2.745126
 H           -3.841218            5.609552           -3.013764
 H           -6.071994            4.782579           -2.255052
 H           -6.267370            3.329246           -0.281767
 H           -5.115566           -0.835166           -2.279936
 H           -6.035717           -4.701688           -4.979538
 H           -6.610573           -7.142655           -5.117708
 H           -6.919727           -8.489380           -3.089543
 H           -6.674507           -7.471771           -0.806489
 H           -5.752384           -3.612902            1.903488
 H           -4.800997            0.233169            4.599841
 H           -4.202747            2.669256            4.753028
 H           -3.905925            4.030181            2.734922
 H           -1.741172            2.692114            1.268060
 H            0.699362            2.749877            1.520038
 H            3.140306            2.793604            1.770761
 H            4.590240           -0.774915           -1.134121
 H            3.411085           -4.700008           -3.641422
 H            2.849217           -7.147815           -3.669352

