96

 C            5.194364           -1.586926           -8.757646
 C            4.998952           -2.927918           -8.231160
 C            4.901137           -3.157550           -6.902350
 C            4.989486           -2.049100           -5.955767
 N            4.891389           -2.274209           -4.651930
 C            4.980405           -1.179101           -3.788479
 C            4.880599           -1.389686           -2.404696
 C            4.970140           -0.291533           -1.535436
 N            4.880824           -0.506293           -0.158019
 C            4.964917            0.547917            0.644008
 C            4.887888            0.377181            2.088952
 C            4.971047            1.452663            2.911226
 C            4.918286            1.307125            4.385814
 C            6.069919            1.311212            5.109176
 C            6.042598            1.171766            6.548285
 C            4.866974            1.033418            7.206225
 C            3.600769            1.025175            6.487408
 C            2.401442            0.888827            7.150499
 C            1.155935            0.886278            6.444181
 C           -0.070215            0.750819            7.113192
 C           -1.283350            0.752300            6.408327
 C           -2.542121            0.618826            7.078138
 C           -3.728883            0.621983            6.379980
 C           -5.009363            0.492588            7.061229
 C           -6.172679            0.497017            6.367877
 C           -6.172273            0.626841            4.927420
 C           -5.006405            0.750568            4.238873
 C           -5.029562            0.887067            2.762502
 C           -4.906842           -0.191071            1.949232
 C           -4.961741           -0.031004            0.501853
 N           -4.841639           -1.088067           -0.291221
 C           -4.916074           -0.884803           -1.671540
 C           -4.789711           -1.986426           -2.531073
 C           -4.878356           -1.788339           -3.917794
 N           -4.753235           -2.887129           -4.771444
 C           -4.843157           -2.674547           -6.078204
 C           -4.717199           -3.787620           -7.014801
 C           -4.807403           -3.570981           -8.346374
 C           -5.031927           -2.239640           -8.885418
 C           -5.160174           -1.163736           -8.076514
 C           -5.071497           -1.318214           -6.627363
 N           -5.192894           -0.260635           -5.835012
 C           -5.098271           -0.460142           -4.455693
 C           -5.217701            0.643088           -3.595778
 C           -5.125958            0.444926           -2.209934
 N           -5.240131            1.545058           -1.355649
 C           -5.160814            1.329370           -0.049538
 C           -5.270402            2.445276            0.886371
 C           -5.206098            2.229915            2.218096
 C           -3.718027            0.758686            4.931620
 C           -2.517606            0.890271            4.269800
 C           -1.270987            0.893637            4.976506
 C           -0.044442            1.031360            4.307854
 C            1.169868            1.029673            5.012752
 C            2.428985            1.168537            4.343316
 C            3.617197            1.167153            5.039713
 C            5.130658            2.802200            2.378283
 C            5.213276            3.027604            1.049164
 C            5.141882            1.915961            0.104804
 N            5.234235            2.142563           -1.198808
 C            5.155710            1.046530           -2.061695
 C            5.258321            1.257141           -3.445254
 C            5.174011            0.158203           -4.314065
 N            5.277226            0.370858           -5.691028
 C            5.189341           -0.682945           -6.492254
 C            5.287396           -0.514692           -7.939300
 H            5.262850           -1.479744           -9.841459
 H            4.933860           -3.743637           -8.952967
 H            4.754842           -4.155512           -6.482173
 H            4.734229           -2.399719           -2.006058
 H            4.765733           -0.642771            2.464518
 H            7.042523            1.413945            4.627327
 H            6.996638            1.181071            7.074838
 H            4.829525            0.924800            8.290227
 H            2.376994            0.779315            8.234677
 H           -0.080232            0.643656            8.197295
 H           -2.537581            0.513860            8.163032
 H           -4.992679            0.393394            8.146650
 H           -7.137365            0.402878            6.865798
 H           -7.135504            0.618560            4.416599
 H           -4.768662           -1.205725            2.333291
 H           -4.624082           -2.989880           -2.123378
 H           -4.549947           -4.778238           -6.585140
 H           -4.714244           -4.390424           -9.060939
 H           -5.092786           -2.142664           -9.970647
 H           -5.330303           -0.153343           -8.455615
 H           -5.380708            1.647274           -4.002342
 H           -5.405458            3.439908            0.453778
 H           -5.284662            3.050923            2.934223
 H           -2.488146            0.992659            3.183274
 H           -0.034454            1.142014            3.222919
 H            2.419483            1.274242            3.256733
 H            5.179735            3.620026            3.100653
 H            5.335136            4.027685            0.625207
 H            5.402229            2.267915           -3.842620
 H            5.434893            0.502758           -8.308839

