96

 C            3.566727           -3.329098            6.986578
 C            3.548771           -1.880955            7.114602
 C            3.775840           -1.076197            6.052100
 C            4.050869           -1.653366            4.738992
 N            4.284931           -0.863999            3.699425
 C            4.545684           -1.457845            2.462755
 C            4.552102           -2.900959            2.333103
 N            4.304711           -3.714780            3.442363
 C            4.064205           -3.127807            4.607928
 C            3.809285           -3.930728            5.800080
 C            4.817327           -3.505476            1.095780
 C            5.076566           -2.696795           -0.020324
 N            5.348774           -3.308114           -1.247555
 C            5.601411           -2.529814           -2.292184
 C            5.899715           -3.116714           -3.594968
 C            6.161338           -2.320435           -4.656136
 C            6.149328           -0.871215           -4.539778
 C            5.878349           -0.259991           -3.364578
 C            5.593977           -1.054160           -2.172273
 N            5.339932           -0.454885           -1.016883
 C            5.073339           -1.252667            0.097851
 C            4.811925           -0.638231            1.342943
 C            4.863174            0.837075            1.484910
 C            6.017975            1.420461            1.905916
 C            6.110780            2.855246            2.054439
 C            5.047268            3.646369            1.777607
 C            3.785744            3.077170            1.325884
 C            2.703288            3.880073            1.046248
 C            1.459590            3.325739            0.605581
 C            0.356167            4.143877            0.321988
 C           -0.860843            3.593966           -0.105978
 C           -1.991450            4.422679           -0.395150
 C           -3.187132            3.882614           -0.810878
 C           -4.332811            4.731597           -1.104773
 C           -5.507915            4.199913           -1.516693
 C           -5.653093            2.770379           -1.672422
 C           -4.615673            1.930628           -1.407052
 C           -4.815011            0.470428           -1.570836
 C           -4.786858           -0.117073           -2.855771
 N           -4.521962            0.683540           -3.969038
 C           -4.515282            0.113752           -5.166315
 C           -4.248791            0.913853           -6.358811
 C           -4.251460            0.334794           -7.580543
 C           -4.514529           -1.085484           -7.746072
 C           -4.765592           -1.886193           -6.685754
 C           -4.779141           -1.333118           -5.334791
 N           -5.027679           -2.115051           -4.292036
 C           -5.040620           -1.534109           -3.020481
 C           -5.317162           -2.343980           -1.909688
 C           -5.344000           -1.767198           -0.631465
 N           -5.634635           -2.579420            0.468376
 C           -5.665471           -2.017921            1.670397
 C           -5.974521           -2.818140            2.851417
 C           -6.009419           -2.241158            4.073993
 C           -5.736664           -0.824427            4.253800
 C           -5.440064           -0.024646            3.204772
 C           -5.395129           -0.573819            1.852258
 N           -5.121158            0.214122            0.821375
 C           -5.087633           -0.352159           -0.454489
 C           -3.317842            2.441056           -0.963567
 C           -2.238106            1.628514           -0.694621
 C           -0.982683            2.168502           -0.258559
 C            0.124559            1.351133            0.024505
 C            1.345053            1.899598            0.453997
 C            2.486779            1.083036            0.748876
 C            3.676793            1.634154            1.171793
 H            3.375688           -3.912986            7.888526
 H            3.344044           -1.468977            8.104029
 H            3.765137            0.014720            6.119954
 H            3.828170           -5.016039            5.677537
 H            4.827539           -4.597304            1.003284
 H            5.899532           -4.207352           -3.656763
 H            6.389377           -2.741161           -5.636943
 H            6.366593           -0.295648           -5.441028
 H            5.857628            0.827042           -3.250831
 H            6.899823            0.826919            2.143312
 H            7.059848            3.267543            2.394608
 H            5.098334            4.729051            1.883454
 H            2.773166            4.961572            1.156720
 H            0.445844            5.223208            0.436700
 H           -1.881962            5.500094           -0.277119
 H           -4.204525            5.805907           -0.980420
 H           -6.372496            4.822911           -1.741964
 H           -6.616942            2.391840           -2.010364
 H           -4.053224            1.978378           -6.206191
 H           -4.056105            0.915470           -8.483472
 H           -4.501627           -1.480724           -8.763216
 H           -4.967475           -2.955269           -6.783455
 H           -5.516810           -3.413563           -2.039300
 H           -6.171393           -3.880460            2.690387
 H           -6.242447           -2.822636            4.967619
 H           -5.779491           -0.432103            5.271112
 H           -5.223992            1.041594            3.312504
 H           -2.316525            0.546482           -0.804718
 H            0.034892            0.270997           -0.090222
 H            2.387149            0.004049            0.626691

