100

 C           -4.415308           -7.839563            0.093950
 C           -4.249136           -7.380982            1.460792
 C           -4.265309           -6.062711            1.763089
 C           -4.449193           -5.063531            0.710823
 N           -4.466059           -3.775896            1.046982
 C           -4.629492           -2.818217            0.046369
 C           -4.643076           -1.461388            0.418378
 C           -4.791474           -0.465804           -0.554775
 C           -4.817278            0.931215           -0.232153
 C           -4.952571            1.873363           -1.224501
 C           -5.057185            1.410865           -2.610659
 N           -5.049036            0.121880           -2.945717
 C           -4.923999           -0.838821           -1.943520
 C           -4.922109           -2.196234           -2.314318
 C           -4.778036           -3.191455           -1.341234
 C           -4.766156           -4.589819           -1.662185
 C           -4.606436           -5.527626           -0.670718
 C           -4.585327           -6.959259           -0.921158
 C           -5.171300            2.404974           -3.675848
 C           -5.192683            3.724809           -3.380538
 C           -5.113965            4.188418           -2.011184
 C           -5.002328            3.311752           -0.978418
 C           -4.953038            3.799487            0.422268
 C           -6.108000            4.060659            1.090701
 C           -6.083945            4.546626            2.452411
 C           -4.907965            4.755203            3.091025
 C           -3.637932            4.496585            2.427674
 C           -2.438018            4.710537            3.068648
 C           -1.189493            4.452697            2.416631
 C            0.037195            4.666478            3.064464
 C            1.253109            4.399619            2.416890
 C            2.511892            4.602888            3.069158
 C            3.701167            4.338561            2.427945
 C            4.981220            4.542534            3.091543
 C            6.147170            4.286166            2.452084
 C            6.150584            3.801512            1.089805
 C            4.985689            3.588891            0.421527
 C            5.014059            3.098758           -0.978916
 C            5.120549            3.971725           -2.015280
 C            5.179881            3.503969           -3.384200
 C            5.147368            2.183541           -3.675532
 C            5.038242            1.192955           -2.606552
 N            5.018914           -0.096917           -2.937753
 C            4.895820           -1.053919           -1.931761
 C            4.883570           -2.412494           -2.298139
 C            4.740412           -3.403900           -1.320956
 C            4.720291           -4.803347           -1.636841
 C            4.560277           -5.736875           -0.641307
 C            4.530786           -7.169271           -0.886339
 C            4.359983           -8.045221            0.132405
 C            4.201684           -7.580822            1.498249
 C            4.226231           -6.261576            1.795766
 C            4.411367           -5.267122            0.739237
 N            4.437129           -3.978461            1.070863
 C            4.601403           -3.025210            0.066180
 C            4.625656           -1.667325            0.433815
 C            4.775139           -0.675791           -0.543263
 C            4.814053            0.721904           -0.224858
 C            4.949625            1.660200           -1.220758
 C            3.694209            3.845674            1.059276
 C            2.493801            3.641603            0.416203
 C            1.243675            3.906723            1.064831
 C            0.016350            3.698228            0.415688
 C           -1.201061            3.959478            1.064889
 C           -2.461158            3.747635            0.416446
 C           -3.651982            4.002562            1.059671
 H           -4.398066           -8.914778           -0.080441
 H           -4.111334           -8.139195            2.232099
 H           -4.143102           -5.688312            2.781470
 H           -4.532155           -1.198362            1.473528
 H           -4.725965            1.226409            0.817137
 H           -5.030375           -2.458322           -3.369241
 H           -4.885470           -4.883874           -2.706059
 H           -4.711385           -7.290758           -1.951578
 H           -5.235594            2.027081           -4.698129
 H           -5.272794            4.480902           -4.162516
 H           -5.150558            5.264301           -1.838150
 H           -7.080904            3.912175            0.621977
 H           -7.041091            4.736237            2.937033
 H           -4.873478            5.121209            4.116764
 H           -2.416690            5.081789            4.093235
 H            0.045133            5.043495            4.086848
 H            2.506283            4.973476            4.094220
 H            4.962106            4.907795            4.117943
 H            7.111466            4.434975            2.936867
 H            7.116436            3.613806            0.620354
 H            5.168261            5.047732           -1.845559
 H            5.254904            4.257420           -4.169236
 H            5.198149            1.802494           -4.697459
 H            4.982936           -2.678481           -3.352965
 H            4.834024           -5.101769           -2.680121
 H            4.651085           -7.505193           -1.916052
 H            4.336288           -9.120957           -0.038023
 H            4.062924           -8.335421            2.272900
 H            4.110238           -5.882807            2.813258
 H            4.522181           -1.400304            1.488707
 H            4.732859            1.020772            0.824188
 H            2.469794            3.269209           -0.610546
 H            0.008217            3.324996           -0.609395
 H           -2.453078            3.374240           -0.610154

