100

 C            5.626377            0.560488            4.877845
 C            5.680807            2.009047            4.936923
 C            5.562050            2.760791            3.817929
 C            5.376999            2.123343            2.515771
 N            5.268914            2.891972            1.432520
 C            5.098388            2.288663            0.187859
 C            5.000481            3.121708           -0.942181
 C            4.839380            2.565941           -2.214292
 C            4.744965            3.375723           -3.396586
 C            4.594641            2.791037           -4.629942
 C            4.497549            3.543662           -5.869684
 C            4.351789            2.910038           -7.057674
 C            4.287137            1.461729           -7.129845
 C            4.371456            0.701808           -6.014217
 C            4.532002            1.328462           -4.701832
 N            4.618049            0.548495           -3.628476
 C            4.772223            1.131690           -2.371303
 C            4.869719            0.289561           -1.238784
 C            4.842690           -1.184527           -1.405655
 C            5.971787           -1.834278           -1.797424
 C            5.987260           -3.272091           -1.944822
 C            4.875044           -4.003380           -1.696280
 C            3.633502           -3.363890           -1.285211
 C            2.497708           -4.102849           -1.042050
 C            1.272255           -3.476153           -0.648363
 C            0.113401           -4.225978           -0.398396
 C           -1.084053           -3.601453           -0.018159
 C           -2.272918           -4.357052            0.235446
 C           -3.447343           -3.740518            0.604542
 C           -4.656754           -4.511489            0.853232
 C           -5.813062           -3.900939            1.205429
 C           -5.872629           -2.464359            1.351425
 C           -4.771274           -1.694397            1.137838
 C           -4.870729           -0.223486            1.309300
 C           -5.118897            0.604775            0.189581
 N           -5.215798            0.015557           -1.070006
 C           -5.453669            0.781773           -2.130507
 C           -5.549576            0.149701           -3.446300
 C           -5.794933            0.895458           -4.547637
 C           -5.968055            2.333729           -4.456166
 C           -5.887343            2.972174           -3.264424
 C           -5.625835            2.234464           -2.039665
 C           -5.533274            2.824749           -0.803029
 C           -5.274436            2.029912            0.364490
 C           -5.179965            2.590609            1.641576
 C           -4.927395            1.771841            2.757619
 N           -4.852809            2.378338            4.010571
 C           -4.619727            1.622925            5.083022
 C           -4.551766            2.262675            6.395737
 C           -4.313980            1.524708            7.504767
 C           -4.120533            0.089058            7.424642
 C           -4.173735           -0.554841            6.233993
 C           -4.427961            0.174113            5.003067
 C           -4.498887           -0.428969            3.769619
 C           -4.762116            0.347415            2.592900
 C           -3.494823           -2.293094            0.745795
 C           -2.360390           -1.549652            0.504272
 C           -1.126341           -2.169627            0.118577
 C            0.035358           -1.420502           -0.131414
 C            1.235105           -2.044225           -0.511327
 C            2.430476           -1.295663           -0.769555
 C            3.603395           -1.916487           -1.138936
 C            5.030440            0.854412            0.042559
 C            5.145695            0.062023            1.232101
 C            5.319939            0.662244            2.456929
 C            5.453033           -0.081820            3.697756
 H            5.729244            0.013749            5.814535
 H            5.820256            2.467658            5.916400
 H            5.598263            3.851861            3.832440
 H            5.057019            4.204337           -0.806394
 H            4.798120            4.459923           -3.286681
 H            4.547749            4.629874           -5.802252
 H            4.278419            3.463007           -7.993682
 H            4.168321            1.012092           -8.116034
 H            4.324258           -0.389272           -6.036141
 H            6.889547           -1.290022           -2.019448
 H            6.919360           -3.737113           -2.263108
 H            4.869582           -5.087312           -1.801400
 H            2.507896           -5.186966           -1.150649
 H            0.142750           -5.309676           -0.503807
 H           -2.226788           -5.439777            0.123302
 H           -4.594261           -5.592661            0.738731
 H           -6.727131           -4.465261            1.384995
 H           -6.829084           -2.021363            1.627435
 H           -5.412809           -0.933584           -3.483064
 H           -5.869765            0.441507           -5.536179
 H           -6.164038            2.875522           -5.381030
 H           -6.014954            4.051018           -3.182748
 H           -5.654273            3.902002           -0.679525
 H           -5.303621            3.665694            1.792212
 H           -4.701543            3.343709            6.426076
 H           -4.260311            1.985005            8.491897
 H           -3.932091           -0.446598            8.354415
 H           -4.030174           -1.632690            6.158211
 H           -4.356015           -1.507852            3.660205
 H           -2.382082           -0.461785            0.592027
 H            0.004367           -0.334846           -0.031112
 H            2.385120           -0.209306           -0.671827
 H            5.091836           -1.026722            1.140266
 H            5.408224           -1.169346            3.637943

