100

 C            3.666662           -2.774271            9.474829
 C            2.952204           -1.554486            9.802560
 C            2.817952           -0.557658            8.897997
 C            3.392754           -0.689117            7.559638
 N            3.237201            0.310499            6.694228
 C            3.778599            0.187915            5.415000
 C            3.597212            1.249650            4.509579
 C            4.118656            1.167864            3.213329
 C            3.960197            2.217115            2.248363
 C            4.491278            2.085859            0.987239
 C            4.378214            3.111133           -0.033297
 C            4.932819            2.936468           -1.261051
 C            4.863182            3.996076           -2.295724
 C            5.864672            4.910426           -2.395765
 C            5.811069            5.965340           -3.383105
 C            4.756609            6.069899           -4.226392
 C            3.654235            5.120557           -4.170270
 C            2.576957            5.222060           -5.022029
 C            1.502229            4.276587           -4.978598
 C            0.404165            4.367964           -5.847809
 C           -0.637189            3.428410           -5.799712
 C           -1.758436            3.500815           -6.687785
 C           -2.773615            2.571737           -6.635975
 C           -3.903610            2.630765           -7.552131
 C           -4.899310            1.714760           -7.492060
 C           -4.872073            0.657770           -6.505680
 C           -3.844165            0.554743           -5.621712
 C           -3.850145           -0.517960           -4.598421
 C           -4.316921           -0.290389           -3.342942
 C           -4.342183           -1.352040           -2.354412
 C           -4.809037           -1.176316           -1.073393
 C           -4.802966           -2.269363           -0.144895
 C           -5.260096           -2.142928            1.171935
 C           -5.219907           -3.245632            2.044978
 N           -5.676782           -3.071126            3.350934
 C           -5.635120           -4.101872            4.192436
 C           -6.108859           -3.911150            5.562908
 C           -6.076802           -4.934071            6.447503
 C           -5.577776           -6.241926            6.065238
 C           -5.129465           -6.476484            4.808855
 C           -5.132681           -5.423562            3.807061
 C           -4.686723           -5.604805            2.519792
 C           -4.711254           -4.516977            1.585176
 C           -4.260514           -4.645074            0.266238
 C           -4.296389           -3.541320           -0.605367
 N           -3.829700           -3.713082           -1.908431
 C           -3.848534           -2.675823           -2.741930
 C           -3.353851           -2.859899           -4.106299
 C           -3.355052           -1.832160           -4.984214
 C           -2.728027            1.500321           -5.653048
 C           -1.654434            1.409791           -4.795667
 C           -0.580602            2.357146           -4.840660
 C            0.518729            2.264781           -3.972565
 C            1.560624            3.204293           -4.020753
 C            2.685228            3.125047           -3.136436
 C            3.707440            4.045922           -3.191072
 C            5.639337            1.706867           -1.593231
 C            5.777033            0.716492           -0.683829
 C            5.215094            0.854853            0.659806
 N            5.382637           -0.138797            1.528978
 C            4.847270           -0.012646            2.810750
 C            5.030856           -1.073241            3.716607
 C            4.506625           -0.992750            5.012002
 C            4.656520           -2.046659            5.973359
 C            4.115258           -1.920894            7.230393
 C            4.221038           -2.949642            8.251526
 H            3.738185           -3.538561           10.247951
 H            2.528710           -1.473310           10.804078
 H            2.285810            0.370185            9.117457
 H            3.042831            2.133275            4.834512
 H            3.411486            3.114212            2.539931
 H            3.838865            4.023872            0.222999
 H            6.730463            4.877196           -1.734517
 H            6.643601            6.667097           -3.417301
 H            4.699656            6.861852           -4.972366
 H            2.522506            6.028960           -5.752724
 H            0.360475            5.180036           -6.572894
 H           -1.787912            4.313598           -7.413365
 H           -3.913669            3.436049           -8.285857
 H           -5.747813            1.745905           -8.174504
 H           -5.704564           -0.045418           -6.491571
 H           -4.686345            0.690927           -3.042352
 H           -5.188954           -0.209883           -0.737908
 H           -5.649734           -1.190696            1.539540
 H           -6.479788           -2.917698            5.823048
 H           -6.424586           -4.808631            7.473335
 H           -5.578965           -7.022644            6.825137
 H           -4.753044           -7.454098            4.508638
 H           -4.305246           -6.570316            2.184058
 H           -3.873569           -5.597944           -0.102015
 H           -2.991333           -3.856884           -4.367693
 H           -2.987284           -1.951265           -6.004833
 H           -1.599195            0.606974           -4.057303
 H            0.564455            1.449219           -3.249652
 H            2.711258            2.308652           -2.411529
 H            6.050700            1.619861           -2.600422
 H            6.304498           -0.214895           -0.902916
 H            5.584650           -1.957046            3.391827
 H            5.205007           -2.943330            5.680845
 H            4.759908           -3.860755            7.992593

