96

 C            5.783624           -6.008689            0.477786
 C            5.883817           -5.784788           -0.871933
 C            5.783068           -4.455550           -1.390253
 C            5.576429           -3.368419           -0.501222
 C            5.475172           -3.625385            0.911155
 C            5.579033           -4.925020            1.372381
 C            5.263895           -2.494788            1.834062
 C            5.167759           -2.686728            3.200397
 C            4.963802           -1.593590            4.083579
 C            4.857051           -0.316548            3.594063
 C            4.953120           -0.074864            2.187458
 C            5.157464           -1.163059            1.299543
 C            5.257157           -0.905520           -0.113011
 C            5.154151            0.391577           -0.578383
 C            4.959786            1.479835            0.319389
 C            4.910774            2.860254           -0.222563
 C            6.058743            3.582529           -0.322861
 C            6.043295            4.937924           -0.825513
 C            4.880483            5.519512           -1.204487
 C            3.619707            4.795010           -1.128778
 C            2.435685            5.377636           -1.521821
 C            1.195541            4.665792           -1.448125
 C           -0.014330            5.256032           -1.843942
 C           -1.223856            4.549492           -1.764647
 C           -2.464321            5.140916           -2.166836
 C           -3.648446            4.442899           -2.088836
 C           -4.909015            5.046297           -2.497756
 C           -6.072276            4.358682           -2.410180
 C           -6.088059            2.999153           -1.919029
 C           -4.940430            2.381373           -1.530039
 C           -4.995213            0.977085           -1.053796
 C           -4.984530           -0.065789           -1.950964
 C           -5.098805           -1.412273           -1.487628
 C           -5.222358           -1.672593           -0.097913
 C           -5.351100           -3.033131            0.352558
 C           -5.354101           -4.057671           -0.576523
 C           -5.229304           -3.790525           -1.965574
 C           -5.102738           -2.500827           -2.415609
 C           -5.479650           -3.303567            1.796427
 C           -5.602089           -4.592702            2.281938
 C           -5.726093           -4.845577            3.673728
 C           -5.728060           -3.807065            4.570136
 C           -5.605464           -2.458592            4.109359
 C           -5.478773           -2.199506            2.719541
 C           -5.354408           -0.838904            2.268061
 C           -5.366381            0.187128            3.195004
 C           -5.495544           -0.078279            4.583772
 C           -5.610902           -1.368534            5.035407
 C           -5.221051           -0.567754            0.824633
 C           -5.103427            0.722279            0.343122
 C           -3.654762            3.076946           -1.586997
 C           -2.471729            2.492997           -1.191188
 C           -1.226079            3.198616           -1.268484
 C           -0.014034            2.607891           -0.875659
 C            1.197787            3.313515           -0.955967
 C            2.443155            2.725243           -0.558651
 C            3.625698            3.428074           -0.630219
 C            4.854606            1.253952            1.672270
 C            5.474492           -2.035976           -1.034631
 C            5.584961           -1.841100           -2.399136
 C            5.793696           -2.932352           -3.282999
 C            5.889566           -4.211115           -2.795486
 H            5.858957           -7.016484            0.885163
 H            6.040325           -6.608287           -1.566764
 H            5.505410           -5.145025            2.438617
 H            5.247078           -3.687409            3.628261
 H            4.894677           -1.790850            5.153194
 H            4.700406            0.530218            4.260575
 H            5.224170            0.612540           -1.645720
 H            7.019030            3.162539           -0.023429
 H            6.994310            5.466444           -0.882217
 H            4.849838            6.542756           -1.576823
 H            2.420477            6.399538           -1.900055
 H           -0.014443            6.279018           -2.218790
 H           -2.448981            6.165119           -2.538847
 H           -4.877595            6.067794           -2.874802
 H           -7.023364            4.799514           -2.706856
 H           -7.048939            2.486288           -1.875206
 H           -4.895405            0.120028           -3.020975
 H           -5.453041           -5.096763           -0.258359
 H           -5.236876           -4.628439           -2.662411
 H           -5.006022           -2.282637           -3.478047
 H           -5.605839           -5.445892            1.601713
 H           -5.819292           -5.877230            4.011766
 H           -5.822233           -3.989610            5.639363
 H           -5.276144            1.226575            2.874264
 H           -5.500537            0.761523            5.277986
 H           -5.708357           -1.583842            6.098219
 H           -5.097736            1.577149            1.022977
 H           -2.459338            1.470562           -0.806314
 H           -0.013606            1.583048           -0.501630
 H            2.431214            1.695134           -0.194733
 H            4.700927            2.080647            2.365390
 H            5.512741           -0.838612           -2.824875
 H            5.874860           -2.731703           -4.350871
 H            6.047342           -5.055611           -3.464296

