102

 C            3.174896           -5.717757           -8.062451
 C            3.852577           -5.418349           -6.928224
 C            3.739397           -4.103881           -6.311530
 C            4.415417           -3.781765           -5.156304
 C            4.288039           -2.486689           -4.557046
 C            4.967542           -2.158157           -3.372564
 C            4.834567           -0.889127           -2.794276
 C            5.501955           -0.512127           -1.583270
 C            5.343391            0.753020           -1.068909
 C            5.988859            1.205084            0.151931
 C            5.817728            2.468684            0.605483
 C            4.978804            3.413220           -0.118981
 C            4.877259            4.789516            0.424354
 C            5.839377            5.704556            0.130372
 C            5.763781            7.052763            0.647121
 C            4.731662            7.432804            1.437518
 C            3.673937            6.497164            1.791544
 C            2.623520            6.875480            2.597531
 C            1.586307            5.953533            2.950087
 C            0.513280            6.332310            3.771236
 C           -0.493115            5.417139            4.114782
 C           -1.590635            5.789096            4.956087
 C           -2.574505            4.885777            5.290188
 C           -3.688782            5.262925            6.148101
 C           -4.651475            4.368258            6.475132
 C           -4.597780            3.011911            5.977236
 C           -3.583295            2.605102            5.168242
 C           -3.552231            1.208156            4.671072
 C           -2.962594            0.200914            5.542034
 C           -2.932525           -1.101123            5.173963
 C           -3.486511           -1.533495            3.902214
 C           -3.501778           -2.845684            3.491971
 C           -4.066776           -3.200078            2.223517
 C           -4.123027           -4.520255            1.758070
 C           -4.679472           -4.820654            0.504085
 C           -4.741382           -6.166875            0.017771
 C           -5.277535           -6.456461           -1.216630
 C           -5.340760           -7.818758           -1.727595
 C           -5.867028           -8.082718           -2.947656
 C           -6.386586           -7.014183           -3.777499
 C           -6.356095           -5.729261           -3.349741
 C           -5.798561           -5.383556           -2.049168
 C           -5.753917           -4.083326           -1.599344
 C           -5.197881           -3.758075           -0.318849
 C           -5.150030           -2.434807            0.143110
 C           -4.598084           -2.138460            1.401306
 N           -4.583659           -0.810301            1.826408
 C           -4.061460           -0.518600            3.016064
 C           -4.069487            0.871398            3.463102
 C           -2.511623            3.523492            4.783517
 C           -1.463337            3.147052            3.973585
 C           -0.427688            4.069919            3.613674
 C            0.642881            3.693168            2.787227
 C            1.653049            4.607265            2.446871
 C            2.753725            4.236437            1.607762
 C            3.741545            5.137821            1.277915
 C            4.335465            3.047625           -1.255904
 C            4.484060            1.696246           -1.788519
 N            3.840244            1.376737           -2.909341
 C            3.992097            0.093663           -3.434421
 C            3.306106           -0.233586           -4.616594
 C            3.439611           -1.507805           -5.187065
 C            2.747974           -1.864219           -6.390784
 C            2.881009           -3.116426           -6.946911
 C            2.181237           -3.494835           -8.167055
 C            2.320246           -4.733912           -8.696430
 H            3.249743           -6.698278           -8.529927
 H            4.499783           -6.147062           -6.441472
 H            5.063431           -4.511693           -4.671819
 H            5.606547           -2.902426           -2.897264
 H            6.133220           -1.248298           -1.084364
 H            6.615013            0.488967            0.684301
 H            6.296676            2.821891            1.519105
 H            6.688752            5.450451           -0.503665
 H            6.561165            7.743299            0.375383
 H            4.659138            8.445678            1.832210
 H            2.561313            7.891664            2.986046
 H            0.460195            7.353462            4.146685
 H           -1.628464            6.812502            5.328444
 H           -3.716420            6.288917            6.513521
 H           -5.490372            4.638408            7.115284
 H           -5.398034            2.331817            6.268968
 H           -2.551787            0.539530            6.493573
 H           -2.495395           -1.864720            5.817500
 H           -3.087856           -3.636754            4.118257
 H           -3.729332           -5.326744            2.376756
 H           -4.350019           -6.961855            0.652049
 H           -4.948352           -8.611902           -1.092152
 H           -5.916352           -9.097018           -3.340512
 H           -6.798961           -7.283186           -4.749044
 H           -6.744725           -4.915439           -3.961032
 H           -6.141405           -3.269064           -2.212347
 H           -5.539884           -1.617463           -0.467880
 H           -4.512733            1.607755            2.787770
 H           -1.400388            2.128915            3.583445
 H            0.689196            2.674313            2.400595
 H            2.788258            3.211829            1.231244
 H            3.696373            3.734892           -1.816299
 H            2.667313            0.520507           -5.082078
 H            2.108375           -1.113897           -6.856501
 H            1.544110           -2.743883           -8.633076
 H            1.799849           -5.027741           -9.607026

