102

 C           -2.384473           -8.240459           -1.196132
 C           -1.898307           -8.081052            0.162053
 C           -2.149830           -6.954718            0.867421
 C           -2.921506           -5.864448            0.270952
 N           -3.160682           -4.778283            1.000423
 C           -3.889201           -3.728414            0.442306
 C           -4.378984           -3.798074           -0.913862
 C           -4.106143           -4.987047           -1.668942
 C           -3.396593           -6.019986           -1.106216
 C           -3.095427           -7.259703           -1.802049
 C           -5.107310           -2.726808           -1.441351
 C           -5.370345           -1.583561           -0.668839
 C           -6.134968           -0.495795           -1.201231
 C           -6.407153            0.623610           -0.447038
 C           -7.201655            1.729171           -0.963462
 C           -7.452658            2.821920           -0.202556
 C           -6.929516            2.922962            1.145079
 C           -6.187547            1.921150            1.675630
 C           -5.896651            0.716902            0.910369
 C           -5.161685           -0.320043            1.440334
 C           -4.880402           -1.502901            0.682167
 C           -4.151237           -2.582423            1.227720
 C           -3.696278           -2.542557            2.640113
 C           -4.459626           -3.125176            3.604018
 C           -4.050958           -3.100270            4.990097
 C           -2.895088           -2.498893            5.359330
 C           -2.031697           -1.865625            4.373000
 C           -0.850182           -1.262294            4.741794
 C            0.003229           -0.642986            3.773510
 C            1.209620           -0.030160            4.144886
 C            2.035820            0.579868            3.189089
 C            3.268016            1.209498            3.557105
 C            4.076730            1.805003            2.615187
 C            5.334181            2.436360            2.989236
 C            6.129551            3.012670            2.056755
 C            5.746775            3.020986            0.663189
 C            4.579613            2.452093            0.257020
 C            4.211985            2.486406           -1.180694
 C            3.528256            3.601610           -1.712839
 C            3.121930            4.703203           -0.891148
 C            2.477542            5.798075           -1.422226
 C            2.063381            6.921899           -0.593718
 C            1.448252            7.999895           -1.136901
 C            1.183846            8.061475           -2.560374
 C            1.536481            7.038331           -3.375619
 C            2.197327            5.853262           -2.847136
 C            2.562628            4.799281           -3.654106
 C            3.230541            3.650165           -3.120190
 C            3.606368            2.582719           -3.951862
 C            4.274566            1.468662           -3.433164
 C            4.682017            0.365989           -4.255282
 C            5.345470           -0.703307           -3.704349
 C            5.797183           -1.849979           -4.474181
 C            6.440555           -2.879333           -3.873363
 C            6.696728           -2.868504           -2.444839
 C            6.307765           -1.828740           -1.672052
 C            5.613206           -0.685473           -2.263967
 N            5.252448            0.321878           -1.473740
 C            4.584111            1.414832           -2.024232
 C            3.680452            1.806771            1.215052
 C            2.498537            1.205512            0.842626
 C            1.642682            0.575056            1.804824
 C            0.438072           -0.044716            1.433953
 C           -0.391668           -0.653765            2.389860
 C           -1.625445           -1.288946            2.029325
 C           -2.434270           -1.880257            2.974704
 H           -2.155833           -9.176045           -1.705126
 H           -1.322958           -8.902229            0.589800
 H           -1.796428           -6.805021            1.890113
 H           -4.477600           -5.049047           -2.692215
 H           -3.464570           -7.366458           -2.821378
 H           -5.481932           -2.780272           -2.463512
 H           -6.502911           -0.577855           -2.223592
 H           -7.586086            1.640188           -1.978642
 H           -8.050692            3.651971           -0.576134
 H           -7.153320            3.827497            1.708717
 H           -5.783987            1.982039            2.686442
 H           -4.775686           -0.257753            2.461287
 H           -5.389871           -3.635809            3.357728
 H           -4.702297           -3.583687            5.716954
 H           -2.572013           -2.474067            6.398743
 H           -0.538183           -1.247219            5.785401
 H            1.511001           -0.031032            5.191444
 H            3.554328            1.202312            4.608074
 H            5.609994            2.420659            4.042330
 H            7.075912            3.481768            2.322701
 H            6.427559            3.486873           -0.048223
 H            3.337559            4.655058            0.179453
 H            2.267138            6.858186            0.475196
 H            1.134948            8.845813           -0.526748
 H            0.694694            8.955147           -2.945453
 H            1.341868            7.069022           -4.446866
 H            2.352740            4.821285           -4.723159
 H            3.377994            2.627179           -5.016725
 H            4.454328            0.400794           -5.321042
 H            5.599408           -1.845547           -5.545435
 H            6.784948           -3.744107           -4.439243
 H            7.212501           -3.729800           -2.019946
 H            6.485407           -1.792502           -0.594804
 H            2.191080            1.191482           -0.204816
 H            0.142285           -0.054434            0.384445
 H           -1.909506           -1.297007            0.975166

