102

 C           -9.181972           -4.126679            5.435223
 C           -8.549613           -3.426390            6.537425
 C           -7.747814           -2.358964            6.319197
 C           -7.497332           -1.885813            4.958340
 N           -6.699454           -0.833958            4.783429
 C           -6.450461           -0.382651            3.487629
 C           -5.600472            0.723427            3.312780
 C           -5.315100            1.204670            2.026956
 C           -4.444578            2.325823            1.823411
 C           -4.167688            2.793836            0.559249
 C           -3.283509            3.929755            0.334115
 C           -3.033831            4.388312           -0.914733
 C           -3.651920            3.757971           -2.070383
 C           -3.390557            4.346841           -3.405798
 C           -4.235191            5.290460           -3.901331
 C           -4.011208            5.877749           -5.203365
 C           -2.955847            5.496226           -5.961367
 C           -2.015747            4.490570           -5.486393
 C           -0.941709            4.094709           -6.251928
 C           -0.011946            3.112761           -5.779796
 C            1.084853            2.704068           -6.554082
 C            1.993303            1.747420           -6.074832
 C            3.113013            1.315146           -6.856162
 C            4.002556            0.379319           -6.376783
 C            5.133388           -0.071112           -7.175955
 C            6.002391           -0.993308           -6.697676
 C            5.834425           -1.548462           -5.373482
 C            4.799847           -1.162008           -4.579733
 C            4.667122           -1.733855           -3.218385
 C            5.104128           -1.061289           -2.121838
 C            5.019104           -1.654509           -0.797193
 C            5.471041           -0.992836            0.322461
 C            5.393787           -1.592492            1.620873
 C            5.853417           -0.919788            2.764927
 C            5.769875           -1.513686            4.030777
 C            6.219332           -0.862115            5.225695
 C            6.104843           -1.489951            6.443401
 C            6.532042           -0.889245            7.695832
 C            6.390492           -1.552564            8.868391
 C            5.810470           -2.881822            8.909219
 C            5.394798           -3.497918            7.778946
 C            5.519769           -2.832404            6.482752
 N            5.096314           -3.469529            5.392958
 C            5.206020           -2.837174            4.154645
 C            4.749397           -3.514903            3.011178
 C            4.831950           -2.912830            1.747157
 C            4.366467           -3.582006            0.567920
 C            4.449099           -2.986396           -0.670069
 C            3.980077           -3.651830           -1.878022
 C            4.081174           -3.058734           -3.090533
 C            3.818332           -0.183079           -5.047478
 C            2.742038            0.213501           -4.285255
 C            1.799748            1.179609           -4.766921
 C            0.698047            1.583523           -3.995707
 C           -0.213215            2.537185           -4.476296
 C           -1.343166            2.956936           -3.700936
 C           -2.227656            3.900875           -4.173040
 C           -4.468525            2.683232           -1.918939
 C           -4.766391            2.149988           -0.599367
 C           -5.602677            1.070215           -0.427505
 C           -5.902871            0.563931            0.878451
 C           -6.754584           -0.538093            1.056568
 C           -7.040073           -1.027055            2.338022
 C           -7.897052           -2.152613            2.566697
 C           -8.135533           -2.594600            3.846643
 C           -8.986517           -3.731565            4.154230
 H           -9.815901           -4.978359            5.678208
 H           -8.744375           -3.793267            7.545587
 H           -7.258566           -1.813103            7.128192
 H           -5.165609            1.198618            4.194938
 H           -4.004753            2.799920            2.701583
 H           -2.833221            4.395241            1.211074
 H           -2.372458            5.235504           -1.096503
 H           -5.102450            5.628024           -3.333854
 H           -4.720591            6.630094           -5.546386
 H           -2.776116            5.927724           -6.945506
 H           -0.776306            4.524886           -7.239541
 H            1.233739            3.136350           -7.543103
 H            3.243770            1.746795           -7.848329
 H            5.250196            0.359223           -8.170022
 H            6.849949           -1.341278           -7.287112
 H            6.566553           -2.280450           -5.032426
 H            5.537758           -0.064253           -2.203863
 H            5.900040            0.005935            0.240986
 H            6.279833            0.078783            2.666490
 H            6.649504            0.136532            5.144543
 H            6.966044            0.109455            7.653199
 H            6.705117           -1.112115            9.813635
 H            5.722019           -3.363535            9.883410
 H            4.954549           -4.496828            7.779150
 H            4.328109           -4.516221            3.124778
 H            3.942360           -4.580673            0.678043
 H            3.546296           -4.645667           -1.765862
 H            3.731502           -3.545288           -4.000998
 H            2.583578           -0.204409           -3.288493
 H            0.548018            1.149078           -3.006461
 H           -1.487181            2.504145           -2.717332
 H           -4.929142            2.195240           -2.778105
 H           -6.056220            0.577537           -1.287540
 H           -7.198530           -1.020977            0.185750
 H           -8.349996           -2.646207            1.706436
 H           -9.455876           -4.250080            3.318615

