92

 C            3.069350           -0.325702            8.055729
 C            3.679615            0.622726            7.324108
 C            3.912465            0.243201            5.926680
 C            4.501095            0.973751            4.935697
 C            4.640947            0.406568            3.615407
 C            4.159849           -0.922971            3.358098
 C            3.531161           -1.671902            4.422965
 C            3.424871           -1.095492            5.644649
 S            2.719469           -1.775589            7.105100
 C            4.312135           -1.475579            2.078590
 C            4.926453           -0.757515            1.042555
 C            5.394857            0.578399            1.294565
 C            5.243166            1.130343            2.575851
 C            6.017289            1.336545            0.235738
 C            6.162891            0.778268           -1.000501
 C            6.764835            1.364991           -2.202331
 C            6.767269            0.546257           -3.268675
 S            6.029966           -1.020003           -2.907189
 C            5.697385           -0.573946           -1.241084
 C            5.107100           -1.333346           -0.278836
 C            4.684176           -2.727025           -0.549122
 C            5.571266           -3.745426           -0.388162
 C            5.184783           -5.113767           -0.650025
 C            3.931553           -5.409942           -1.069292
 C            2.937909           -4.363255           -1.262382
 C            1.663459           -4.656634           -1.693199
 C            0.684529           -3.627654           -1.876744
 C           -0.614786           -3.918586           -2.319386
 C           -1.567082           -2.901333           -2.485576
 C           -2.899169           -3.184624           -2.927930
 C           -3.827515           -2.180856           -3.091797
 C           -5.184007           -2.469181           -3.535354
 C           -6.090822           -1.476538           -3.698438
 C           -5.732075           -0.099737           -3.441155
 C           -4.480121            0.228357           -3.022805
 C           -4.136606            1.647114           -2.770714
 C           -3.660778            2.447283           -3.762911
 S           -3.331150            2.008524           -5.431435
 C           -2.802140            3.644255           -5.846239
 C           -2.864605            4.478618           -4.793821
 C           -3.353626            3.850349           -3.562165
 C           -3.543599            4.418562           -2.336404
 C           -4.044429            3.616681           -1.245866
 C           -4.257037            4.183470            0.020300
 C           -4.743871            3.417828            1.089764
 C           -5.018564            2.021950            0.886185
 C           -5.513926            1.225210            1.986186
 C           -5.716434            1.828111            3.182626
 S           -6.313744            1.106820            4.671259
 C           -6.217161            2.635765            5.555328
 C           -5.760341            3.637256            4.783622
 C           -5.452328            3.238751            3.406154
 C           -4.975613            4.009764            2.386143
 C           -4.807311            1.455226           -0.378592
 C           -4.334553            2.223640           -1.452164
 C           -3.460137           -0.800347           -2.817699
 C           -2.185874           -0.508827           -2.383996
 C           -1.204545           -1.537500           -2.204056
 C            0.097124           -1.246853           -1.764727
 C            1.049683           -2.264375           -1.595616
 C            2.382808           -1.981864           -1.151839
 C            3.312621           -2.984539           -0.988752
 H            2.786775           -0.300592            9.095695
 H            3.992479            1.594340            7.686051
 H            4.873812            1.980546            5.113175
 H            3.162831           -2.675178            4.212395
 H            3.943471           -2.486403            1.884857
 H            5.602060            2.141835            2.767564
 H            6.361706            2.346487            0.449603
 H            7.159553            2.372927           -2.180360
 H            7.146963            0.730519           -4.260814
 H            6.595604           -3.559427           -0.063779
 H            5.937044           -5.887331           -0.499779
 H            3.626424           -6.435446           -1.274817
 H            1.373555           -5.685577           -1.904401
 H           -0.888021           -4.950011           -2.539305
 H           -3.162923           -4.221678           -3.133656
 H           -5.437662           -3.510854           -3.729236
 H           -7.109397           -1.678554           -4.027773
 H           -6.495511            0.662667           -3.598807
 H           -2.483420            3.852170           -6.855021
 H           -2.591930            5.526354           -4.802813
 H           -3.327878            5.469774           -2.155503
 H           -4.040685            5.240735            0.175284
 H           -5.709856            0.166518            1.820830
 H           -6.513259            2.661065            6.591503
 H           -5.615952            4.662507            5.101285
 H           -4.764372            5.068585            2.521442
 H           -5.014653            0.392597           -0.530339
 H           -1.894263            0.522099           -2.170016
 H            0.373057           -0.213105           -1.552089
 H            2.646419           -0.941445           -0.947699

