116

 C           -4.962592           -7.271225           -1.181781
 C           -4.808868           -6.672775           -2.495077
 C           -4.784520           -5.327861           -2.643918
 C           -4.914002           -4.440682           -1.493488
 C           -4.896740           -3.076201           -1.625889
 C           -5.028952           -2.204845           -0.486383
 C           -5.172723           -2.803798            0.821820
 C           -5.186980           -4.240027            0.931601
 C           -5.066176           -5.042581           -0.173039
 C           -5.084272           -6.497934           -0.077937
 C           -5.301407           -1.992756            1.943527
 C           -5.289789           -0.580821            1.833969
 C           -5.420882            0.245526            2.978896
 C           -5.408629            1.631779            2.874136
 C           -5.541167            2.483974            4.028191
 C           -5.520529            3.850126            3.912177
 C           -5.647955            4.725817            5.072303
 C           -5.622025            6.072213            4.938993
 C           -5.470091            6.686708            3.633001
 C           -5.349374            5.925423            2.520818
 C           -5.365350            4.468725            2.598284
 C           -5.239299            3.681999            1.482528
 C           -5.255858            2.244369            1.572971
 C           -5.128240            1.441009            0.445003
 C           -5.145671            0.026286            0.537905
 C           -5.028176           -0.811551           -0.609198
 C           -4.945209           -0.188283           -1.954345
 C           -6.089236            0.089285           -2.636266
 C           -6.043737            0.683455           -3.952957
 C           -4.857891            0.978006           -4.536928
 C           -3.599051            0.707639           -3.856957
 C           -2.390298            1.003808           -4.445968
 C           -1.151521            0.734905           -3.779896
 C            0.082961            1.032041           -4.376827
 C            1.290404            0.762667           -3.714642
 C            2.556325            1.058437           -4.314665
 C            3.738482            0.790066           -3.661643
 C            5.024906            1.085769           -4.276079
 C            6.184718            0.817748           -3.630235
 C            6.173817            0.229595           -2.310212
 C            5.001876           -0.069574           -1.687091
 C            5.029866           -0.681281           -0.334323
 C            5.109236            0.168043            0.808322
 C            5.100231            1.581661            0.701468
 C            5.197378            2.395955            1.825087
 C            5.192602            3.832582            1.720185
 C            5.292914            4.629826            2.831353
 C            5.290039            6.085722            2.739246
 C            5.387096            6.857313            3.846800
 C            5.499271            6.254626            5.162200
 C            5.509977            4.909422            5.309325
 C            5.406609            4.023238            4.154910
 C            5.412349            2.658061            4.284883
 C            5.306751            1.795468            3.136030
 C            5.305498            0.410025            3.254656
 C            5.206593           -0.426694            2.114419
 C            5.207310           -1.837755            2.238259
 C            5.115721           -2.659262            1.120951
 C            5.122211           -4.094499            1.245656
 C            5.042564           -4.907978            0.145447
 C            5.056075           -6.362390            0.255740
 C            4.977302           -7.146634           -0.844183
 C            4.874206           -6.561300           -2.168336
 C            4.855614           -5.218001           -2.331452
 C            4.941599           -4.319152           -1.185925
 C            4.930931           -2.956111           -1.332567
 C            5.021805           -2.073091           -0.197773
 C            3.716104            0.196552           -2.333611
 C            2.507407           -0.093268           -1.739902
 C            1.264221            0.173897           -2.401824
 C            0.027622           -0.123301           -1.805634
 C           -1.181666            0.144682           -2.467773
 C           -2.451958           -0.153710           -1.874066
 C           -3.633497            0.110072           -2.531030
 H           -4.975350           -8.358540           -1.121645
 H           -4.714428           -7.343877           -3.347037
 H           -4.668270           -4.863199           -3.622962
 H           -4.777764           -2.616533           -2.609732
 H           -5.298387           -4.671574            1.925799
 H           -5.200067           -6.932280            0.914184
 H           -5.415527           -2.442404            2.929584
 H           -5.531774           -0.226384            3.954732
 H           -5.657919            2.006812            5.000820
 H           -5.763139            4.251696            6.046260
 H           -5.713749            6.733855            5.799043
 H           -5.457811            7.774465            3.585756
 H           -5.236147            6.372292            1.533586
 H           -5.121495            4.126774            0.494030
 H           -5.007478            1.902785           -0.537805
 H           -7.068297           -0.131531           -2.210371
 H           -6.992368            0.879687           -4.451593
 H           -4.806522            1.422611           -5.529899
 H           -2.352911            1.451404           -5.438639
 H            0.104447            1.478479           -5.370212
 H            2.561764            1.503571           -5.309144
 H            5.015901            1.526754           -5.271951
 H            7.153638            1.031974           -4.080075
 H            7.133734            0.032039           -1.832371
 H            5.011411            2.034532           -0.288833
 H            5.105606            4.268359            0.724542
 H            5.206563            6.523653            1.745086
 H            5.384624            7.944600            3.788568
 H            5.574043            6.924056            6.017888
 H            5.594986            4.444316            6.290726
 H            5.497245            2.189977            5.265216
 H            5.381487           -0.052597            4.238276
 H            5.284274           -2.277767            3.232257
 H            5.194556           -4.516096            2.247725
 H            5.133047           -6.786868            1.255885
 H            4.987858           -8.233319           -0.772863
 H            4.812386           -7.240979           -3.016495
 H            4.776659           -4.763235           -3.318823
 H            4.849714           -2.506227           -2.324730
 H            2.472805           -0.538184           -0.742303
 H            0.006178           -0.570817           -0.810609
 H           -2.460283           -0.601160           -0.877019

