92

 C           -4.681934            5.747207            3.393728
 C           -4.923330            5.705647            1.969369
 C           -4.995320            4.518641            1.314795
 C           -4.830719            3.263408            2.026487
 C           -4.910519            2.040564            1.378417
 C           -4.738905            0.818496            2.082843
 C           -4.469792            0.863939            3.489529
 C           -4.402909            2.121862            4.147207
 C           -4.578095            3.305662            3.448162
 C           -4.515823            4.601125            4.101967
 C           -4.275436           -0.348477            4.202686
 C           -4.344121           -1.574278            3.560928
 C           -4.138950           -2.818271            4.283100
 C           -4.212560           -4.015045            3.647676
 C           -4.498311           -4.076911            2.233122
 C           -4.695179           -2.941448            1.516234
 C           -4.627886           -1.633318            2.145294
 C           -4.827033           -0.451954            1.433505
 C           -5.162535           -0.495310           -0.012521
 C           -6.459635           -0.613298           -0.404351
 C           -6.810972           -0.653346           -1.805986
 C           -5.854516           -0.578548           -2.762062
 C           -4.447923           -0.455400           -2.407052
 C           -3.468863           -0.384460           -3.372863
 C           -2.085624           -0.261955           -3.022769
 C           -1.080771           -0.197938           -4.000094
 C            0.270329           -0.072875           -3.641470
 C            1.307480           -0.009047           -4.626696
 C            2.629457            0.129172           -4.266190
 C            3.684517            0.196870           -5.267139
 C            4.981099            0.345070           -4.904776
 C            5.353134            0.437002           -3.510919
 C            4.411725            0.372502           -2.531224
 C            4.818469            0.460242           -1.105620
 C            4.819717            1.688427           -0.447013
 C            4.397218            2.918512           -1.094677
 C            4.405259            4.101527           -0.429353
 C            4.835777            4.169376            0.947762
 C            5.243168            3.049735            1.597414
 C            5.254610            1.759736            0.929060
 C            5.672429            0.612175            1.583409
 C            5.670933           -0.647092            0.927477
 C            6.099951           -1.824851            1.597156
 C            6.082350           -3.056648            0.962327
 C            6.515946           -4.271995            1.629054
 C            6.481022           -5.468092            0.988151
 C            6.009860           -5.561138           -0.374952
 C            5.598517           -4.452553           -1.041464
 C            5.619930           -3.148096           -0.403134
 C            5.210976           -2.003055           -1.068852
 C            5.228575           -0.732455           -0.432739
 C            2.994709            0.212172           -2.860639
 C            2.012467            0.139341           -1.898262
 C            0.630952           -0.004166           -2.250112
 C           -0.374424           -0.074872           -1.272849
 C           -1.725610           -0.203948           -1.630678
 C           -2.760967           -0.280532           -0.642990
 C           -4.085084           -0.406683           -0.999217
 H           -4.638596            6.723879            3.873369
 H           -5.043640            6.652571            1.445773
 H           -5.175836            4.470238            0.241290
 H           -5.106175            2.005274            0.304212
 H           -4.211175            2.141394            5.219467
 H           -4.332668            4.616732            5.175355
 H           -4.068691           -0.299494            5.271488
 H           -3.923606           -2.752486            5.348719
 H           -4.057958           -4.953358            4.178324
 H           -4.547969           -5.059321            1.766100
 H           -4.906439           -2.978298            0.445871
 H           -7.266856           -0.679760            0.325226
 H           -7.866709           -0.744884           -2.058683
 H           -6.103748           -0.607717           -3.821924
 H           -3.729534           -0.420548           -4.430089
 H           -1.353530           -0.245252           -5.053604
 H            1.023101           -0.072200           -5.676525
 H            3.389260            0.124429           -6.313038
 H            5.779299            0.398512           -5.644314
 H            6.409919            0.557636           -3.272304
 H            4.070062            2.856915           -2.134359
 H            4.088708            5.025734           -0.910394
 H            4.819647            5.140648            1.440077
 H            5.571193            3.082224            2.635508
 H            6.008653            0.662579            2.618743
 H            6.446675           -1.743502            2.626764
 H            6.867868           -4.186492            2.656091
 H            6.804108           -6.385685            1.477526
 H            5.996581           -6.544255           -0.842589
 H            5.240024           -4.505817           -2.069021
 H            4.863771           -2.068894           -2.102472
 H            2.269949            0.192908           -0.837313
 H           -0.100908           -0.028228           -0.217610
 H           -2.471312           -0.235840            0.410040

