92

 C           -5.914440            7.584275            1.143056
 C           -6.016235            7.092931            2.498457
 C           -5.956670            5.761818            2.757894
 C           -5.785922            4.799205            1.683497
 C           -5.712601            3.436415            1.927553
 C           -5.535564            2.509625            0.865398
 C           -5.447969            1.111751            1.104481
 C           -5.271030            0.217416            0.060087
 C           -5.183442           -1.212356            0.287809
 C           -5.019760           -2.076216           -0.751205
 C           -4.967869           -3.542405           -0.535916
 C           -6.088847           -4.291464           -0.712354
 C           -6.069762           -5.720177           -0.492287
 C           -4.933817           -6.344154           -0.099067
 C           -3.698643           -5.599017            0.100408
 C           -2.537612           -6.225774            0.495712
 C           -1.321138           -5.492674            0.682213
 C           -0.134512           -6.121692            1.090097
 C            1.050311           -5.389763            1.266589
 C            2.267254           -6.016515            1.688065
 C            3.425673           -5.290842            1.857476
 C            4.661007           -5.925605            2.295042
 C            5.795579           -5.204712            2.460473
 C            5.811904           -3.783796            2.195000
 C            4.689284           -3.136712            1.782265
 C            4.741450           -1.679789            1.510315
 C            5.147195           -1.200315            0.302778
 C            5.251381            0.226845            0.065352
 C            5.676081            0.733355           -1.153311
 C            5.790549            2.133695           -1.365151
 C            6.224333            2.664955           -2.609457
 C            6.327239            4.033399           -2.806592
 C            6.761508            4.594342           -4.074315
 C            6.847003            5.937716           -4.249640
 C            6.509593            6.843532           -3.175066
 C            6.102881            6.367500           -1.970605
 C            5.992623            4.939128           -1.731027
 C            5.574246            4.432225           -0.510182
 C            5.460661            3.032011           -0.298127
 C            5.025032            2.500539            0.945895
 C            4.914003            1.132706            1.139785
 C            4.467185            0.570351            2.402584
 C            4.381865           -0.771344            2.582056
 C            3.430080           -3.858806            1.599965
 C            2.268840           -3.237984            1.196958
 C            1.050558           -3.971897            1.020669
 C           -0.137370           -3.343138            0.614657
 C           -1.323838           -4.073743            0.442659
 C           -2.544221           -3.442249            0.035669
 C           -3.706036           -4.162497           -0.130211
 C           -4.916570           -1.583782           -2.111389
 C           -4.992145           -0.254166           -2.368157
 C           -5.176559            0.708493           -1.295943
 C           -5.263641            2.069636           -1.541763
 C           -5.440634            2.996731           -0.479236
 C           -5.522343            4.394797           -0.717951
 C           -5.686815            5.290326            0.327765
 C           -5.759014            6.723764            0.104744
 H           -5.966295            8.660844            0.987632
 H           -6.140604            7.823600            3.296450
 H           -6.032525            5.376394            3.773985
 H           -5.788673            3.056674            2.945902
 H           -5.522778            0.749855            2.129660
 H           -5.258500           -1.570525            1.314662
 H           -7.031254           -3.837073           -1.017018
 H           -6.998419           -6.267115           -0.650739
 H           -4.906649           -7.418348            0.078304
 H           -2.521948           -7.300645            0.674478
 H           -0.132962           -7.195789            1.272984
 H            2.254325           -7.090222            1.874061
 H            4.635246           -6.997821            2.484233
 H            6.724397           -5.666339            2.793515
 H            6.752675           -3.251752            2.334663
 H            5.411181           -1.873097           -0.513130
 H            5.930516            0.057601           -1.969463
 H            6.475620            1.974611           -3.413995
 H            7.012687            3.899302           -4.874656
 H            7.168365            6.369067           -5.196646
 H            6.592580            7.912304           -3.366665
 H            5.845656            7.038290           -1.151802
 H            5.323493            5.108116            0.307083
 H            4.778343            3.190974            1.752024
 H            4.205211            1.266165            3.199413
 H            4.049267           -1.205497            3.524765
 H            2.253729           -2.163454            1.000587
 H           -0.138519           -2.268186            0.429919
 H           -2.529406           -2.364211           -0.140930
 H           -4.778181           -2.315916           -2.906678
 H           -4.917960            0.131384           -3.384766
 H           -5.196868            2.448656           -2.561211
 H           -5.450572            4.756460           -1.743447
 H           -5.681380            7.079596           -0.921843

