104

 C           -5.457030           -2.247149           -5.759109
 C           -5.343164           -0.802812           -5.788970
 C           -5.234127           -0.093996           -4.639453
 C           -5.228453           -0.760385           -3.344608
 C           -5.119728           -0.056601           -2.166213
 C           -5.116184           -0.719249           -0.895709
 C           -5.223082           -2.153962           -0.868694
 C           -5.337335           -2.867976           -2.106072
 C           -5.341954           -2.208954           -3.314682
 C           -5.456986           -2.917804           -4.581803
 C           -5.219842           -2.827178            0.361967
 C           -5.107425           -2.126805            1.572322
 C           -5.103860           -2.813179            2.830401
 C           -4.995257           -2.127403            4.019179
 C           -4.990059           -2.808090            5.306749
 C           -4.880104           -2.111749            6.463951
 C           -4.765389           -0.667228            6.451141
 C           -4.765181            0.015813            5.281069
 C           -4.880365           -0.678756            4.006332
 C           -4.883146           -0.001575            2.807521
 C           -4.999662           -0.691996            1.557352
 C           -5.018091           -0.010583            0.321141
 C           -4.974814            1.473781            0.303584
 C           -6.134565            2.181955            0.371426
 C           -6.124693            3.627283            0.359967
 C           -4.957428            4.309549            0.281483
 C           -3.683658            3.608924            0.204899
 C           -2.494014            4.297321            0.123258
 C           -1.240430            3.610467            0.045346
 C           -0.025805            4.307906           -0.040012
 C            1.196503            3.623600           -0.117334
 C            2.442206            4.323749           -0.206661
 C            3.639331            3.648094           -0.282454
 C            4.904733            4.362030           -0.375531
 C            6.079366            3.692113           -0.449106
 C            6.106210            2.246998           -0.435164
 C            4.955295            1.526697           -0.348975
 C            5.015752            0.042999           -0.328926
 C            5.095446           -0.632278            0.908256
 C            5.070362            0.064115            2.160458
 C            5.161812           -0.606995            3.359147
 C            5.139795            0.093794            4.635618
 C            5.232438           -0.583303            5.805497
 C            5.355366           -2.027173            5.816540
 C            5.380760           -2.728911            4.657821
 C            5.285119           -2.054992            3.370190
 C            5.308170           -2.746150            2.179938
 C            5.213772           -2.066209            0.921849
 C            5.241441           -2.771688           -0.290264
 C            5.150558           -2.104560           -1.520927
 C            5.181401           -2.824043           -2.759970
 C            5.096283           -2.171053           -3.968856
 C            5.127851           -2.885591           -5.237563
 C            5.041309           -2.221209           -6.415254
 C            4.915394           -0.777838           -6.443649
 C            4.880944           -0.063939           -5.292585
 C            4.969810           -0.723571           -3.997286
 C            4.937766           -0.014796           -2.817240
 C            5.030870           -0.670790           -1.546637
 C            3.654533            2.193543           -0.270558
 C            2.465770            1.502924           -0.186778
 C            1.206996            2.184600           -0.107905
 C           -0.009539            1.488056           -0.021745
 C           -1.234393            2.171519            0.054592
 C           -2.485078            1.476441            0.141477
 C           -3.681991            2.154390            0.214842
 H           -5.540972           -2.767143           -6.712417
 H           -5.347958           -0.314923           -6.762281
 H           -5.147006            0.992294           -4.644141
 H           -5.029849            1.031935           -2.181327
 H           -5.421358           -3.953562           -2.066534
 H           -5.542048           -4.002884           -4.543681
 H           -5.308869           -3.913078            0.378312
 H           -5.190153           -3.899255            2.823088
 H           -5.077311           -3.893628            5.300579
 H           -4.873614           -2.610786            7.432001
 H           -4.679570           -0.157854            7.409592
 H           -4.679108            1.101877            5.253729
 H           -4.792008            1.086836            2.790037
 H           -7.100610            1.680848            0.436757
 H           -7.084501            4.139471            0.416969
 H           -4.932393            5.398336            0.272617
 H           -2.484415            5.386681            0.116007
 H           -0.032211            5.397187           -0.046611
 H            2.419923            5.412925           -0.213664
 H            4.867121            5.450461           -0.383754
 H            7.032840            4.214442           -0.519306
 H            7.077820            1.755993           -0.494560
 H            4.973286            1.152034            2.144817
 H            5.045826            1.179216            4.609588
 H            5.216779           -0.069368            6.765229
 H            5.424953           -2.521099            6.784758
 H            5.472702           -3.814082            4.650266
 H            5.400061           -3.831777            2.171214
 H            5.338563           -3.856948           -0.275699
 H            5.275280           -3.908867           -2.721530
 H            5.223201           -3.969876           -5.200316
 H            5.062630           -2.745518           -7.369637
 H            4.849700           -0.294825           -7.417195
 H            4.786231            1.021689           -5.296419
 H            4.836786            1.072740           -2.830843
 H            2.459177            0.410045           -0.178346
 H           -0.003216            0.396823           -0.013966
 H           -2.466038            0.383699            0.147645

