96

 C          -13.133410           -0.535836           -2.410774
 C          -12.577481            0.766660           -2.555967
 C          -11.406499            1.095366           -1.918787
 C          -10.721042            0.143141           -1.101040
 C          -11.279537           -1.153585           -0.956320
 C          -12.501617           -1.471620           -1.630439
 C          -10.621875           -2.129139           -0.145056
 C           -9.443068           -1.833167            0.501741
 C           -8.753863           -2.817097            1.332575
 C           -7.599042           -2.525340            1.967232
 C           -6.982684           -1.206805            1.857684
 C           -7.624199           -0.217622            1.048932
 C           -7.041875            1.069127            0.925452
 C           -5.840263            1.361006            1.611245
 C           -5.235720            0.393915            2.405840
 C           -4.002599            0.717594            3.166285
 C           -4.092756            1.101086            4.467882
 C           -2.908563            1.426586            5.231363
 C           -1.679679            1.350995            4.667436
 C           -1.516246            0.943339            3.279515
 C           -0.269581            0.859660            2.700309
 C           -0.108068            0.460545            1.334711
 C            1.158883            0.372013            0.736650
 C            1.301456           -0.017603           -0.604071
 C            2.588771           -0.108521           -1.227164
 C            2.724840           -0.493594           -2.541978
 C            4.025654           -0.591918           -3.205200
 C            5.256794           -0.272561           -2.439862
 C            5.842930            1.004682           -2.577382
 C            7.018527            1.314478           -1.898885
 C            7.632272            0.334371           -1.058179
 C            7.031078           -0.941994           -0.918750
 C            5.836352           -1.231569           -1.617183
 C            7.667822           -1.917186           -0.064669
 C            8.822367           -1.623980            0.592092
 C            9.457325           -0.332267            0.466821
 C            8.857047            0.634996           -0.355951
 C            9.460406            1.938902           -0.509239
 C           10.628992            2.234880            0.155926
 C           11.257585            1.269323            1.001369
 C           12.469060            1.587569            1.694485
 C           13.073228            0.661275            2.507306
 C           12.498930           -0.631396            2.667821
 C           11.337430           -0.959775            2.013502
 C           10.680628           -0.017478            1.161516
 C            8.801035            2.912494           -1.375692
 C            7.655066            2.621826           -2.026113
 C            4.116627           -0.971811           -4.507660
 C            2.932696           -1.294588           -5.272609
 C            1.703220           -1.220225           -4.709600
 C            1.538601           -0.815093           -3.321015
 C            0.291545           -0.731356           -2.742500
 C            0.129263           -0.333087           -1.376567
 C           -1.137727           -0.244685           -0.778426
 C           -1.280392            0.144686            0.562540
 C           -2.567457            0.234997            1.186470
 C           -2.702733            0.619989            2.501511
 C           -5.800595           -0.894804            2.523707
 C           -7.705798            2.052966            0.102665
 C           -8.869689            1.759341           -0.537047
 C           -9.487072            0.458010           -0.425404
 C           -8.858660           -0.518957            0.364277
 H          -14.061632           -0.772125           -2.928502
 H          -13.096650            1.492852           -3.179258
 H          -10.978964            2.093439           -2.027681
 H          -12.917649           -2.471056           -1.511655
 H          -11.075719           -3.115161           -0.049755
 H           -9.214908           -3.801683            1.417970
 H           -7.087150           -3.264181            2.584631
 H           -5.394798            2.351246            1.518142
 H           -5.056923            1.174969            4.970847
 H           -3.044867            1.732493            6.267684
 H           -0.778004            1.592183            5.229503
 H            0.625775            1.096825            3.274904
 H            2.046874            0.610182            1.322545
 H            3.467364            0.139611           -0.627278
 H            5.364861            1.742489           -3.221270
 H            5.375798           -2.213550           -1.510917
 H            7.194854           -2.894039            0.035184
 H            9.300570           -2.366741            1.234542
 H           11.096777            3.213226            0.049308
 H           12.899463            2.579393            1.563536
 H           13.993268            0.897791            3.039485
 H           12.996368           -1.350502            3.316592
 H           10.895761           -1.950270            2.134373
 H            9.277330            3.888692           -1.474146
 H            7.165380            3.352834           -2.670300
 H            5.080983           -1.045561           -5.010199
 H            3.069511           -1.597820           -6.309655
 H            0.802095           -1.460085           -5.272911
 H           -0.603545           -0.967342           -3.317810
 H           -2.025707           -0.482500           -1.364288
 H           -3.446507           -0.013087            0.587446
 H           -5.301783           -1.639449            3.143651
 H           -7.245760            3.036991            0.012811
 H           -9.368903            2.508776           -1.155260

