96

 C            5.453496           -3.743562           -2.975567
 C            4.708540           -3.749360           -1.766737
 C            4.958898           -2.822177           -0.782882
 C            5.970533           -1.819391           -0.917443
 C            6.692247           -1.817043           -2.144505
 C            6.422388           -2.791062           -3.158445
 C            7.700080           -0.839482           -2.392902
 C            8.000357            0.112721           -1.450028
 C            9.032277            1.111678           -1.716536
 C            9.362109            2.050185           -0.807404
 C            8.689577            2.105576            0.484113
 C            7.666608            1.145593            0.770148
 C            7.012166            1.206211            2.022640
 C            7.366617            2.201843            2.966262
 C            8.361904            3.116750            2.670825
 C            9.026437            3.070236            1.430564
 C            5.999102            0.229835            2.301761
 C            5.656924           -0.742461            1.400030
 C            4.616775           -1.679567            1.900141
 C            4.976140           -2.774734            2.623235
 C            3.974789           -3.656817            3.179283
 C            2.655470           -3.404543            3.004908
 C            2.205989           -2.240810            2.253876
 C            0.867075           -1.971179            2.077081
 C            0.429310           -0.828115            1.333005
 C           -0.932987           -0.540927            1.154248
 C           -1.346568            0.578174            0.415012
 C           -2.734173            0.882884            0.228200
 C           -3.135802            1.976578           -0.504775
 C           -4.548453            2.304059           -0.719055
 C           -5.586500            1.486676           -0.037522
 C           -5.856252            1.888118            1.243706
 C           -6.881689            1.271339            2.035298
 C           -7.159071            1.697389            3.357672
 C           -8.177497            1.101662            4.080871
 C           -8.943546            0.066167            3.512756
 C           -8.683602           -0.375961            2.217871
 C           -7.635827            0.226931            1.450858
 C           -7.340539           -0.206365            0.103055
 C           -6.305087            0.384285           -0.657582
 C           -6.040151           -0.128011           -1.988425
 C           -4.961697            0.302275           -2.824271
 C           -4.785114           -0.181612           -4.098830
 C           -5.671340           -1.153569           -4.634534
 C           -6.693235           -1.629487           -3.854437
 C           -6.885404           -1.141018           -2.522392
 C           -7.933060           -1.701715           -1.734117
 C           -8.152249           -1.268199           -0.449425
 C           -9.208724           -1.868595            0.361153
 C           -9.462884           -1.450807            1.617031
 C           -4.909502            3.387083           -1.458628
 C           -3.909249            4.238895           -2.062439
 C           -2.589392            3.983273           -1.896821
 C           -2.137680            2.843231           -1.111506
 C           -0.798439            2.572190           -0.938522
 C           -0.359128            1.443158           -0.173930
 C            1.003313            1.160766            0.012296
 C            1.417126            0.044379            0.755836
 C            2.804681           -0.252386            0.956695
 C            3.205025           -1.351938            1.681800
 C            6.291800           -0.829519            0.093839
 C            7.297044            0.125451           -0.186361
 H            5.241726           -4.490967           -3.737523
 H            3.930571           -4.500070           -1.631626
 H            4.346898           -2.871949            0.115482
 H            7.003795           -2.757992           -4.079009
 H            8.224821           -0.863507           -3.348315
 H            9.526436            1.063343           -2.687651
 H           10.134358            2.793422           -1.003548
 H            6.848733            2.236353            3.923226
 H            8.639788            3.881029            3.396000
 H            9.808488            3.797669            1.218635
 H            5.502691            0.279943            3.274337
 H            6.024356           -3.017928            2.797469
 H            4.323175           -4.523023            3.740912
 H            1.890497           -4.060098            3.419606
 H            0.108268           -2.628611            2.501120
 H           -1.682759           -1.197590            1.595942
 H           -3.472030            0.217243            0.682865
 H           -5.295726            2.711578            1.693819
 H           -6.564673            2.498158            3.794454
 H           -8.395934            1.430325            5.096481
 H           -9.743619           -0.385697            4.096957
 H           -4.233632            1.022433           -2.455444
 H           -3.957017            0.170712           -4.712919
 H           -5.520281           -1.511187           -5.651117
 H           -7.375782           -2.389271           -4.232925
 H           -8.549239           -2.488279           -2.170204
 H           -9.784337           -2.673942           -0.096634
 H          -10.252004           -1.896923            2.221622
 H           -5.958209            3.639069           -1.617247
 H           -4.259249            5.088678           -2.647644
 H           -1.825765            4.619033           -2.343613
 H           -0.040476            3.214607           -1.386561
 H            1.753090            1.818520           -0.427949
 H            3.543485            0.420045            0.513555

