96

 C          -10.575462           -3.331081           -2.229407
 C          -11.131501           -2.076258           -2.607267
 C          -10.577303           -0.906698           -2.148254
 C           -9.438338           -0.920714           -1.283301
 C           -8.890937           -2.174006           -0.903941
 C           -9.483318           -3.379312           -1.399493
 C           -7.760744           -2.226030           -0.031469
 C           -7.188678           -1.071332            0.454452
 C           -6.048948           -1.106356            1.362394
 C           -5.482690            0.024355            1.846470
 C           -4.348631           -0.057319            2.802013
 C           -4.588815           -0.132378            4.138390
 C           -3.499055           -0.219540            5.085015
 C           -2.212997           -0.230242            4.660797
 C           -1.890228           -0.154366            3.243227
 C           -0.585238           -0.165121            2.803161
 C           -0.269328           -0.085674            1.408674
 C            1.057294           -0.094248            0.950394
 C            1.350419           -0.014158           -0.419756
 C            2.700521           -0.021704           -0.899531
 C            2.984775            0.053262           -2.244470
 C            4.353849            0.047952           -2.761896
 C            5.487223           -0.027911           -1.805046
 C            6.081370            1.105209           -1.361625
 C            7.219026            1.074897           -0.450947
 C            7.819826            2.231959           -0.007107
 C            8.945823            2.183618            0.870916
 C            9.568022            3.391072            1.323184
 C           10.655104            3.345847            2.159826
 C           11.176009            2.091996            2.587935
 C           10.593443            0.920820            2.170405
 C            9.458941            0.931732            1.299597
 C            8.825345           -0.281470            0.846235
 C            7.721114           -0.208513           -0.019139
 C            7.074714           -1.413151           -0.484040
 C            5.954462           -1.348827           -1.371421
 C            5.347614           -2.529390           -1.794167
 C            5.829298           -3.778102           -1.359369
 C            6.916727           -3.856663           -0.505146
 C            7.555579           -2.676725           -0.055183
 C            8.691197           -2.724265            0.835048
 C            9.295077           -1.582746            1.261534
 C            4.594422            0.117849           -4.098314
 C            3.504937            0.199526           -5.045612
 C            2.218493            0.210947           -4.621996
 C            1.895200            0.140742           -3.204297
 C            0.590068            0.152692           -2.764540
 C            0.273825            0.076816           -1.369864
 C           -1.052818            0.086631           -0.911450
 C           -1.345967            0.006979            0.458740
 C           -2.695967            0.015772            0.939053
 C           -2.979946           -0.062727            2.283857
 C           -5.982344            1.348037            1.460044
 C           -7.107014            1.416620            0.578631
 C           -7.620713            2.682468            0.197301
 C           -7.009036            3.860871            0.687343
 C           -5.915618            3.778560            1.533545
 C           -5.401696            2.527319            1.921660
 C           -8.760877            2.733979           -0.686772
 C           -9.337683            1.594011           -1.152888
 C           -8.833779            0.290668           -0.787196
 C           -7.724767            0.213874            0.071745
 H          -11.031018           -4.244242           -2.608809
 H          -12.000035           -2.062676           -3.263735
 H          -11.002003            0.055913           -2.437569
 H           -9.049109           -4.333254           -1.103163
 H           -7.362462           -3.202225            0.244241
 H           -5.669762           -2.090033            1.645222
 H           -5.605193           -0.128077            4.532410
 H           -3.752791           -0.275393            6.142916
 H           -1.381576           -0.295028            5.361810
 H            0.238994           -0.233673            3.513061
 H            1.873399           -0.164322            1.669803
 H            3.505765           -0.091716           -0.164650
 H            5.726288            2.087003           -1.679855
 H            7.447620            3.206902           -0.320913
 H            9.160247            4.343929            0.988442
 H           11.133273            4.260462            2.506682
 H           12.040752            2.080662            3.249550
 H           10.991274           -0.041013            2.498130
 H            4.489125           -2.496042           -2.467313
 H            5.335151           -4.686349           -1.703407
 H            7.287522           -4.825132           -0.173136
 H            9.048908           -3.703028            1.154291
 H           10.154681           -1.624911            1.933736
 H            5.610859            0.113019           -4.492216
 H            3.758810            0.250711           -6.103704
 H            1.387489            0.271840           -5.323688
 H           -0.233961            0.218992           -3.474794
 H           -1.868853            0.156955           -1.630816
 H           -3.501312            0.089416            0.204755
 H           -7.405478            4.831084            0.392229
 H           -5.441807            4.685816            1.907708
 H           -4.539142            2.490894            2.589466
 H           -9.144397            3.714364           -0.968811
 H          -10.200740            1.639103           -1.820357

