68

 C           -7.484150            1.723253           -2.097361
 C           -7.819513            1.705696           -0.767390
 C           -7.207599            0.766447            0.123664
 C           -7.533486            0.746004            1.516948
 C           -6.939023           -0.162410            2.355597
 C           -6.000286           -1.104802            1.849448
 C           -5.670157           -1.112961            0.512416
 C           -4.721394           -2.130603           -0.002959
 C           -5.189336           -3.313587           -0.483466
 C           -4.281654           -4.327146           -0.972513
 C           -2.942979           -4.122320           -0.957386
 C           -2.379872           -2.877455           -0.454286
 C           -1.019630           -2.663385           -0.429179
 C           -0.467998           -1.433973            0.056140
 C            0.917192           -1.209108            0.091357
 C            1.443586            0.004296            0.561376
 C            2.855800            0.242369            0.612423
 C            3.366143            1.438827            1.064161
 C            4.803219            1.706278            1.135448
 C            5.755684            0.641832            0.733971
 C            6.189725            0.543340           -0.633298
 C            5.696496            1.413844           -1.657018
 C            6.141323            1.295100           -2.949358
 C            7.108275            0.305060           -3.291296
 C            7.596179           -0.546154           -2.332596
 C            7.140838           -0.452204           -0.978242
 C            7.626232           -1.343924            0.030366
 C            7.179626           -1.238707            1.323126
 C            6.237416           -0.233873            1.681359
 C            5.269609            2.906299            1.573151
 C            4.358533            3.951036            1.984336
 C            3.018937            3.754813            1.948103
 C            2.457731            2.491087            1.492459
 C            1.097138            2.279860            1.460106
 C            0.546777            1.039230            1.003013
 C           -0.838271            0.812240            0.972898
 C           -1.364131           -0.405652            0.514391
 C           -2.775366           -0.653905            0.488568
 C           -3.286108           -1.846427            0.027245
 C           -6.260864           -0.159541           -0.387202
 C           -5.928213           -0.112789           -1.778737
 C           -6.521346            0.804600           -2.608540
 H           -7.944159            2.434052           -2.782019
 H           -8.555777            2.400579           -0.366846
 H           -8.259538            1.464214            1.894270
 H           -7.176596           -0.183010            3.418403
 H           -5.551481           -1.822023            2.536668
 H           -6.257312           -3.529956           -0.512100
 H           -4.714986           -5.253556           -1.347224
 H           -2.246472           -4.876632           -1.321110
 H           -0.331823           -3.431112           -0.782985
 H            1.595511           -1.989515           -0.253264
 H            3.523751           -0.555998            0.280577
 H            4.957939            2.170404           -1.387352
 H            5.765075            1.951751           -3.732082
 H            7.448151            0.240150           -4.323730
 H            8.336683           -1.304267           -2.582059
 H            8.352957           -2.104385           -0.250440
 H            7.538598           -1.916008            2.096987
 H            5.907142           -0.167514            2.717951
 H            6.338528            3.113091            1.625957
 H            4.790434            4.892018            2.322865
 H            2.320062            4.531997            2.254692
 H            0.407887            3.059959            1.782721
 H           -1.517001            1.595514            1.310155
 H           -3.442352            0.133772            0.846766
 H           -5.191961           -0.820351           -2.163100
 H           -6.268144            0.846339           -3.666646

