100

 C            7.834938            5.971862           -2.370501
 C            6.819222            6.353131           -1.407928
 C            6.211511            5.420638           -0.637341
 C            6.558187            4.009145           -0.749481
 C            5.949444            3.057792            0.033258
 C            6.306183            1.672988           -0.094609
 N            5.702687            0.746432            0.693298
 C            6.062837           -0.557311            0.540734
 C            7.064172           -0.941938           -0.440536
 N            7.673407           -0.012063           -1.228789
 C            7.314408            1.288754           -1.071463
 C            7.933505            2.305969           -1.872135
 C            7.576074            3.624727           -1.721926
 C            8.194401            4.675364           -2.521122
 C            7.422570           -2.321157           -0.575089
 C            6.823833           -3.276868            0.212486
 C            7.191742           -4.682059            0.096050
 C            6.605051           -5.625777            0.869816
 C            5.585895           -5.260400            1.832456
 C            5.209723           -3.968584            1.985306
 C            5.812663           -2.904191            1.192614
 C            5.452580           -1.578421            1.358486
 C            4.467957           -1.164534            2.389058
 C            4.903921           -0.758054            3.611714
 C            3.966124           -0.369779            4.641334
 C            2.632124           -0.403627            4.410182
 C            2.104966           -0.812896            3.116415
 C            0.750444           -0.828920            2.867948
 C            0.231718           -1.214274            1.590161
 C           -1.146900           -1.226727            1.326191
 C           -1.639980           -1.602851            0.067201
 C           -3.044856           -1.612995           -0.215556
 C           -3.525914           -1.975919           -1.453328
 C           -4.953523           -1.984200           -1.776540
 C           -5.935333           -1.603537           -0.730429
 C           -6.617359           -2.557188            0.004481
 C           -6.376365           -3.983559           -0.174984
 C           -7.064970           -4.909655            0.533324
 C           -8.067536           -4.508011            1.498908
 C           -8.325069           -3.197085            1.719530
 C           -7.611002           -2.155946            0.991534
 C           -7.871559           -0.825416            1.223692
 C           -7.171455            0.188511            0.495029
 N           -7.440017            1.500608            0.746890
 C           -6.759587            2.437257            0.035689
 C           -7.004296            3.832120            0.266568
 C           -6.315578            4.787327           -0.442652
 C           -6.544760            6.209927           -0.222372
 C           -5.859758            7.145128           -0.921758
 C           -4.875302            6.756827           -1.913460
 C           -4.621781            5.450440           -2.161870
 C           -5.327100            4.396795           -1.442616
 C           -5.075044            3.068781           -1.689946
 C           -5.776714            2.047635           -0.964677
 N           -5.512632            0.740115           -1.217512
 C           -6.189053           -0.200503           -0.503218
 C           -5.388640           -2.329115           -3.018280
 C           -4.452239           -2.710239           -4.051760
 C           -3.120664           -2.733225           -3.805124
 C           -2.592387           -2.362719           -2.500042
 C           -1.238285           -2.364631           -2.247744
 C           -0.717584           -1.984683           -0.968852
 C            0.661154           -1.972821           -0.704424
 C            1.154777           -1.594116            0.553919
 C            2.559909           -1.574240            0.835828
 C            3.039732           -1.200687            2.071109
 H            8.292755            6.763470           -2.963022
 H            6.566761            7.410097           -1.331342
 H            5.444757            5.690529            0.089556
 H            5.183252            3.317173            0.768446
 H            8.689442            1.990639           -2.594895
 H            8.955040            4.372731           -3.240961
 H            8.183099           -2.578192           -1.316314
 H            7.958910           -4.938677           -0.634646
 H            6.877630           -6.677869            0.793655
 H            5.135857           -6.058091            2.422581
 H            4.438359           -3.683200            2.704849
 H            5.966626           -0.708363            3.847086
 H            4.373093           -0.050547            5.599966
 H            1.913079           -0.120554            5.177605
 H            0.042098           -0.541227            3.644409
 H           -1.845901           -0.936284            2.110402
 H           -3.728137           -1.312251            0.580389
 H           -5.614283           -4.276262           -0.901229
 H           -6.886048           -5.976250            0.401347
 H           -8.599282           -5.293254            2.035180
 H           -9.074156           -2.876327            2.443674
 H           -8.612084           -0.502262            1.959291
 H           -7.749552            4.097145            1.019926
 H           -7.287803            6.485986            0.525944
 H           -6.024836            8.210480           -0.763349
 H           -4.352459            7.551155           -2.444990
 H           -3.884039            5.141685           -2.903249
 H           -4.341157            2.747702           -2.433876
 H           -6.448479           -2.321787           -3.270618
 H           -4.857799           -2.972448           -5.028063
 H           -2.403877           -3.021408           -4.572743
 H           -0.531494           -2.653024           -3.025177
 H            1.360022           -2.259493           -1.490001
 H            3.245586           -1.858872            0.035925

