102

 C            3.427551           -3.890061           -1.914414
 C            3.424289           -3.095661           -0.808542
 C            3.770568           -1.710171           -0.949343
 C            3.872427           -0.653554           -0.058452
 C            3.626601           -0.462025            1.360389
 C            4.374996            0.477960            2.091419
 C            4.119937            0.664515            3.451098
 C            3.120568           -0.078925            4.088007
 C            2.374033           -1.013043            3.362579
 C            2.622080           -1.207687            2.002351
 O            4.298030            0.496260           -0.741953
 C            4.436580            0.148914           -2.095546
 C            4.854636            1.256555           -2.943343
 C            6.018282            1.967956           -2.599455
 C            6.441473            3.047716           -3.374411
 C            5.704690            3.428874           -4.500785
 C            4.548372            2.729852           -4.849461
 C            4.109103            1.642040           -4.076717
 C            2.873988            0.935452           -4.493334
 C            2.859837            0.255429           -5.672551
 C            1.671916           -0.434086           -6.121112
 C            0.542116           -0.419997           -5.374342
 C            0.490579            0.292015           -4.105633
 C           -0.656229            0.310022           -3.342807
 C           -0.707877            1.004303           -2.091636
 C           -1.866840            1.014949           -1.300043
 C           -1.887089            1.667344           -0.057515
 C           -3.052932            1.655227            0.774912
 C           -3.048594            2.218494            2.031432
 C           -4.196500            2.152292            2.938412
 C           -5.440317            1.460703            2.520886
 C           -6.619611            2.215914            2.408952
 C           -7.819233            1.610394            2.031854
 C           -7.858499            0.238115            1.764194
 C           -6.695320           -0.524985            1.871464
 C           -5.482835            0.076495            2.250843
 C           -4.281464           -0.743481            2.325070
 C           -3.343665           -1.065968            3.288178
 C           -3.191693           -0.731242            4.676036
 C           -2.128192           -1.235536            5.359367
 C           -1.157583           -2.102633            4.722696
 C           -1.255288           -2.438508            3.407048
 C           -2.351664           -1.919667            2.639856
 C           -2.741482           -2.053494            1.317931
 C           -2.184708           -2.689120            0.134429
 C           -3.010007           -3.395755           -0.755974
 C           -2.455990           -3.991496           -1.891363
 C           -1.085309           -3.879354           -2.146427
 C           -0.263649           -3.168865           -1.264600
 C           -0.807341           -2.573958           -0.124721
 O           -3.940566           -1.357538            1.107330
 C           -4.141972            2.730156            4.170395
 C           -2.957747            3.427199            4.617011
 C           -1.864760            3.510538            3.821820
 C           -1.851648            2.901183            2.499925
 C           -0.731259            2.958352            1.700561
 C           -0.703434            2.337141            0.410938
 C            0.447153            2.349253           -0.392718
 C            0.467948            1.695636           -1.634747
 C            1.642094            1.681348           -2.455314
 C            1.679579            0.995132           -3.648582
 C            4.132156           -1.189843           -2.265252
 C            4.120849           -2.067032           -3.401414
 C            3.774670           -3.371015           -3.221175
 H            3.172380           -4.946714           -1.847969
 H            3.179353           -3.475004            0.180945
 H            5.148156            1.058600            1.588276
 H            4.699852            1.392678            4.016111
 H            2.919304            0.073667            5.146756
 H            1.586475           -1.582777            3.855966
 H            2.028773           -1.923457            1.434939
 H            6.586051            1.666967           -1.718041
 H            7.343083            3.593808           -3.101383
 H            6.031643            4.273592           -5.105944
 H            3.971326            3.033019           -5.723684
 H            3.741984            0.208986           -6.310251
 H            1.722129           -0.958724           -7.073831
 H           -0.360469           -0.938031           -5.696022
 H           -1.551673           -0.215899           -3.673782
 H           -2.759779            0.493759           -1.646581
 H           -3.944533            1.156121            0.386835
 H           -6.590531            3.287313            2.610148
 H           -8.725310            2.208917            1.944498
 H           -8.794470           -0.234145            1.470007
 H           -6.717625           -1.594455            1.658448
 H           -3.929723           -0.076913            5.135224
 H           -1.974307           -1.001759            6.411277
 H           -0.346513           -2.480979            5.342300
 H           -0.541889           -3.094595            2.914405
 H           -4.078250           -3.472362           -0.556918
 H           -3.094314           -4.544194           -2.578647
 H           -0.656752           -4.340517           -3.034448
 H            0.803704           -3.067784           -1.473442
 H           -0.173012           -2.001432            0.552585
 H           -4.986585            2.680486            4.856747
 H           -2.979911            3.876483            5.608566
 H           -0.962536            4.028318            4.144914
 H            0.168136            3.469743            2.042839
 H            1.343690            2.859721           -0.040413
 H            2.518954            2.223726           -2.093954
 H            4.386343           -1.658602           -4.374743
 H            3.751147           -4.067094           -4.057635

