96

 C           -6.085404           -1.227142            6.121189
 C           -4.915193           -0.365426            6.157798
 C           -4.560166            0.387905            5.092157
 C           -5.359111            0.355633            3.870223
 N           -5.022203            1.108127            2.831249
 C           -5.808442            1.039143            1.679101
 C           -6.962168            0.163451            1.637877
 N           -7.304108           -0.616516            2.746135
 C           -6.542378           -0.532715            3.829380
 C           -6.861206           -1.317823            5.017728
 C           -7.761983            0.086060            0.488723
 C           -7.434144            0.871694           -0.625212
 N           -8.245416            0.797013           -1.761062
 C           -7.927917            1.548479           -2.807422
 C           -8.748693            1.518919           -4.014017
 C           -8.422633            2.286899           -5.077804
 C           -7.256196            3.154259           -5.059121
 C           -6.451902            3.231452           -3.974574
 C           -6.745470            2.438658           -2.783882
 N           -5.966366            2.527184           -1.714157
 C           -6.282471            1.750892           -0.596852
 C           -5.471580            1.833088            0.558515
 C           -4.317106            2.763514            0.605620
 C           -4.542414            4.090079            0.805682
 C           -3.442803            5.026478            0.872526
 C           -2.164211            4.601538            0.736997
 C           -1.861070            3.194237            0.517260
 C           -0.562105            2.758305            0.377728
 C           -0.256755            1.376667            0.159890
 C            1.065117            0.922690            0.025114
 C            1.347660           -0.436415           -0.184043
 C            2.693589           -0.912073           -0.315923
 C            2.966845           -2.246680           -0.514970
 C            4.326758           -2.771259           -0.647078
 C            5.477215           -1.837986           -0.563532
 C            6.079706           -1.544750            0.681139
 N            5.565120           -2.119090            1.845490
 C            6.151261           -1.833280            3.000586
 C            5.645342           -2.407800            4.244209
 C            6.253417           -2.129242            5.419707
 C            7.413687           -1.255970            5.485087
 C            7.928616           -0.681762            4.374673
 C            7.326220           -0.935539            3.069702
 N            7.830442           -0.374825            1.977911
 C            7.224402           -0.658858            0.751032
 C            7.750058           -0.075821           -0.411010
 C            7.156755           -0.363767           -1.648192
 N            7.694537            0.214271           -2.801782
 C            7.126106           -0.068505           -3.966662
 C            7.654830            0.499889           -5.202794
 C            7.075272            0.207384           -6.388599
 C            5.915594           -0.665121           -6.472157
 C            5.373140           -1.225568           -5.367425
 C            5.951872           -0.966075           -4.051838
 N            5.430195           -1.528405           -2.969983
 C            6.012386           -1.248880           -1.731375
 C            4.555847           -4.096896           -0.844096
 C            3.456217           -5.031979           -0.929139
 C            2.175556           -4.606324           -0.814456
 C            1.869053           -3.198698           -0.601039
 C            0.569008           -2.760423           -0.479743
 C            0.263106           -1.378131           -0.265213
 C           -1.058859           -0.923815           -0.131368
 C           -1.341437            0.435065            0.080063
 C           -2.686719            0.909783            0.222921
 C           -2.959314            2.241396            0.442907
 H           -6.312395           -1.800619            7.021486
 H           -4.331946           -0.352669            7.079721
 H           -3.681177            1.037468            5.091984
 H           -7.741400           -1.962197            4.962573
 H           -8.635386           -0.575491            0.463892
 H           -9.619188            0.859259           -4.003496
 H           -9.025925            2.280285           -5.987100
 H           -7.054765            3.741074           -5.956515
 H           -5.567656            3.872374           -3.937331
 H           -5.552929            4.481549            0.918121
 H           -3.684889            6.075799            1.034977
 H           -1.324103            5.293432            0.786539
 H            0.265515            3.464383            0.431406
 H            1.887953            1.634454            0.084598
 H            3.499784           -0.179897           -0.251365
 H            4.769754           -3.057304            4.169556
 H            5.891326           -2.551185            6.358361
 H            7.853453           -1.081591            6.468493
 H            8.797903           -0.020707            4.397479
 H            8.617165            0.592026           -0.353206
 H            8.524196            1.155091           -5.113047
 H            7.459798            0.618519           -7.323522
 H            5.498511           -0.849018           -7.463382
 H            4.498913           -1.880222           -5.403503
 H            5.567497           -4.488514           -0.943285
 H            3.700027           -6.081492           -1.087521
 H            1.336486           -5.298160           -0.876850
 H           -0.259049           -3.464844           -0.545267
 H           -1.881617           -1.635637           -0.189799
 H           -3.492845            0.177846            0.156409

