102

 C            6.573224            4.871886           -3.905455
 C            7.650305            4.096462           -4.491601
 C            8.057204            2.931397           -3.936757
 C            7.420246            2.430444           -2.720134
 N            7.847768            1.282377           -2.197483
 C            7.256981            0.809650           -1.025764
 C            7.731272           -0.394722           -0.482061
 C            7.182415           -0.905251            0.702540
 C            7.668464           -2.126347            1.274225
 C            7.144441           -2.627395            2.444133
 C            7.638437           -3.857639            3.047267
 C            7.108533           -4.330102            4.201067
 C            6.028050           -3.626941            4.863281
 C            5.529021           -2.479608            4.343621
 C            6.066476           -1.917415            3.112511
 C            5.584777           -0.743414            2.578796
 C            6.123973           -0.192646            1.370923
 C            5.656353            1.025335            0.830643
 C            4.620112            1.807523            1.552045
 C            4.998997            2.776679            2.428348
 C            4.014548            3.557272            3.143489
 C            2.691042            3.339169            2.956879
 C            2.222054            2.314548            2.034971
 C            0.877920            2.083518            1.843656
 C            0.417157            1.071764            0.940976
 C           -0.950839            0.824100            0.745744
 C           -1.387181           -0.173905           -0.139212
 C           -2.780581           -0.439727           -0.344325
 C           -3.203228           -1.424801           -1.208120
 C           -4.617645           -1.724973           -1.431694
 C           -5.655191           -0.945504           -0.709188
 C           -6.109392           -1.378944            0.555607
 C           -5.550871           -2.524468            1.210489
 C           -6.021428           -2.957274            2.429663
 C           -5.464168           -4.124825            3.098124
 C           -5.953424           -4.547334            4.288732
 C           -7.043535           -3.841929            4.932540
 C           -7.591643           -2.743010            4.360518
 C           -7.107812           -2.243916            3.080625
 C           -7.649309           -1.130557            2.479364
 C           -7.174002           -0.663077            1.210612
 C           -7.739585            0.464462            0.599169
 C           -7.276083            0.904791           -0.650810
 N           -7.881406            2.023958           -1.222123
 C           -7.464986            2.446933           -2.414497
 C           -8.116802            3.608141           -3.017426
 C           -7.720774            4.062157           -4.228969
 C           -6.641590            3.420236           -4.955744
 C           -6.000830            2.342819           -4.442358
 C           -6.381778            1.795297           -3.151848
 C           -5.778427            0.693786           -2.592059
 C           -6.210654            0.196017           -1.319512
 C           -4.996065           -2.707062           -2.293536
 C           -4.011939           -3.482350           -3.014771
 C           -2.688810           -3.247940           -2.846061
 C           -2.220119           -2.212522           -1.935944
 C           -0.876289           -1.971430           -1.755767
 C           -0.415688           -0.954974           -0.858075
 C            0.952192           -0.706895           -0.663482
 C            1.388595            0.291077            0.221744
 C            2.782047            0.551717            0.432315
 C            3.205174            1.525393            1.308909
 C            6.195042            1.533497           -0.367625
 C            5.749226            2.753726           -0.972891
 C            6.338426            3.216709           -2.125794
 C            5.944575            4.451705           -2.781575
 H            6.291673            5.798478           -4.403622
 H            8.117502            4.487451           -5.395765
 H            8.861733            2.325016           -4.357072
 H            8.539611           -0.922358           -0.993495
 H            8.472862           -2.649719            0.757238
 H            8.447911           -4.376718            2.535379
 H            7.473414           -5.246462            4.663352
 H            5.636573           -4.054607            5.784971
 H            4.713727           -1.941332            4.826449
 H            4.772351           -0.205627            3.073302
 H            6.052085            2.989087            2.616838
 H            4.378374            4.319708            3.831638
 H            1.936945            3.918853            3.488731
 H            0.132481            2.669666            2.381503
 H           -1.686750            1.415111            1.291861
 H           -3.505486            0.162532            0.208705
 H           -4.732992           -3.053666            0.715809
 H           -4.642706           -4.641649            2.602570
 H           -5.547216           -5.421151            4.795851
 H           -7.401012           -4.226974            5.886704
 H           -8.409306           -2.200124            4.833281
 H           -8.460144           -0.580508            2.957189
 H           -8.553122            1.010403            1.082442
 H           -8.923539            4.071823           -2.446572
 H           -8.199384            4.923278           -4.695855
 H           -6.369227            3.837421           -5.924163
 H           -5.186113            1.852213           -4.975045
 H           -4.960706            0.179507           -3.103958
 H           -6.048805           -2.937417           -2.461887
 H           -4.375519           -4.254693           -3.691741
 H           -1.934865           -3.824047           -3.381908
 H           -0.130940           -2.555343           -2.296085
 H            1.688041           -1.300270           -1.207032
 H            3.506595           -0.048809           -0.123007
 H            4.932591            3.304405           -0.498449
 H            5.130487            5.020876           -2.332618

