102

 C          -16.245411           -1.727347           -1.032121
 C          -15.286257           -1.782587           -0.077071
 C          -14.012028           -1.099135           -0.251978
 C          -13.022809           -1.149097            0.704116
 C          -11.773805           -0.472610            0.517275
 C          -10.759681           -0.527554            1.487115
 C           -9.546330            0.146549            1.298731
 C           -8.485473            0.116194            2.261574
 C           -7.321040            0.809427            2.031606
 C           -6.206233            0.825163            2.963376
 C           -5.090604            1.546406            2.705379
 C           -4.975634            2.329404            1.482443
 C           -3.744675            3.135219            1.295523
 C           -3.785428            4.482409            1.479101
 C           -2.597815            5.291306            1.318018
 C           -1.416827            4.722648            0.977365
 C           -1.309290            3.286773            0.761862
 C           -0.112942            2.703800            0.407490
 C           -0.006885            1.292225            0.190860
 C            1.209476            0.690644           -0.168374
 C            1.298279           -0.694176           -0.378903
 C            2.533951           -1.322003           -0.743051
 C            2.616301           -2.681282           -0.947026
 C            3.864404           -3.350919           -1.314153
 C            5.092302           -2.537686           -1.491231
 C            5.271897           -1.861593           -2.768779
 C            6.383048           -1.129059           -3.013868
 C            7.427515           -0.993659           -2.012893
 C            8.582560           -0.278423           -2.221869
 C            9.570844           -0.184373           -1.188589
 C           10.769996            0.521466           -1.349684
 C           11.711223            0.591653           -0.309915
 C           12.944339            1.304078           -0.466224
 C           13.861598            1.377121            0.557711
 C           15.118088            2.099758            0.414916
 C           16.005846            2.165825            1.436041
 C           15.728338            1.514380            2.700572
 C           14.576355            0.826207            2.886713
 C           13.583476            0.721324            1.826020
 C           12.406768            0.027230            1.995777
 C           11.438069           -0.064263            0.943157
 C           10.240648           -0.775810            1.109539
 C            9.304433           -0.851738            0.063918
 N            8.132850           -1.581455            0.265880
 C            7.240115           -1.655906           -0.719830
 C            6.024059           -2.436578           -0.510002
 C            3.907811           -4.697530           -1.497947
 C            2.719998           -5.507133           -1.340122
 C            1.537245           -4.939947           -1.002795
 C            1.427046           -3.503998           -0.788513
 C            0.229445           -2.920901           -0.438306
 C            0.122393           -1.508849           -0.224138
 C           -1.094396           -0.906853            0.133423
 C           -1.183079            0.477928            0.345009
 C           -2.418194            1.106132            0.711110
 C           -2.498998            2.464577            0.921846
 C           -5.973561            2.338050            0.562766
 C           -7.198214            1.576051            0.789464
 N           -8.158430            1.616028           -0.132801
 C           -9.340835            0.910519            0.090698
 C          -10.349491            0.957909           -0.886976
 C          -11.561207            0.278109           -0.693631
 C          -12.603753            0.312650           -1.676777
 C          -13.794779           -0.348897           -1.479181
 C          -14.862643           -0.326003           -2.469619
 C          -16.028217           -0.982736           -2.256398
 H          -17.201240           -2.235586           -0.912625
 H          -15.434440           -2.337506            0.848561
 H          -13.172182           -1.707320            1.628152
 H          -10.918978           -1.102218            2.399643
 H           -8.625401           -0.464511            3.174019
 H           -6.306295            0.235860            3.875136
 H           -4.248670            1.569668            3.398309
 H           -4.711049            4.988743            1.754154
 H           -2.691879            6.364595            1.480280
 H           -0.512639            5.317382            0.851858
 H            0.783476            3.311117            0.281811
 H            2.099912            1.308899           -0.284239
 H            3.417419           -0.689372           -0.851172
 H            4.481316           -1.972019           -3.511732
 H            6.531450           -0.618910           -3.965902
 H            8.769299            0.226642           -3.170265
 H           10.975331            1.022675           -2.295741
 H           13.140240            1.789299           -1.422274
 H           15.312472            2.582531           -0.542113
 H           16.947480            2.704894            1.341070
 H           16.476731            1.599307            3.487484
 H           14.354524            0.330963            3.831416
 H           12.185168           -0.470470            2.940274
 H           10.020681           -1.281386            2.052425
 H            5.910393           -2.926580            0.460220
 H            4.834784           -5.203278           -1.768663
 H            2.815436           -6.580456           -1.501551
 H            0.633597           -5.535831           -0.879379
 H           -0.666918           -3.528336           -0.313923
 H           -1.984953           -1.524905            0.248029
 H           -3.302335            0.474034            0.815339
 H           -5.909165            2.907197           -0.367967
 H          -10.174618            1.534372           -1.798111
 H          -12.426998            0.879994           -2.591000
 H          -14.685321            0.237885           -3.384813
 H          -16.832580           -0.972237           -2.990736

