102

 C          -11.244024            1.353025            5.548742
 C          -10.186503            2.276133            5.916271
 C           -9.176341            2.558373            5.062113
 C           -9.128758            1.936382            3.739174
 N           -8.125257            2.247304            2.921789
 C           -8.069660            1.650989            1.662048
 C           -7.005943            1.985405            0.806247
 C           -6.902071            1.395900           -0.462399
 C           -5.824273            1.719071           -1.350555
 C           -5.713822            1.130913           -2.590358
 C           -6.705644            0.154004           -3.012576
 C           -7.756355           -0.162368           -2.180401
 C           -7.892688            0.442751           -0.889960
 C           -8.962721            0.121822           -0.038277
 C           -9.071850            0.705348            1.230158
 C          -10.142173            0.403116            2.134656
 C          -10.191783            0.996784            3.373510
 C          -11.246369            0.741574            4.340115
 C           -6.557493           -0.473179           -4.317925
 C           -5.523811           -0.152470           -5.132045
 C           -4.542482            0.830012           -4.728329
 C           -4.628017            1.448015           -3.519973
 C           -3.624212            2.471644           -3.136083
 C           -3.744201            3.746999           -3.592633
 C           -2.763215            4.753414           -3.252000
 C           -1.699107            4.446086           -2.472606
 C           -1.516586            3.099809           -1.949492
 C           -0.439436            2.780199           -1.153065
 C           -0.268121            1.459159           -0.627625
 C            0.820897            1.127663            0.193744
 C            0.972600           -0.170165            0.705553
 C            2.074479           -0.518860            1.552746
 C            2.222820           -1.794725            2.048266
 C            3.331527           -2.175895            2.924433
 C            4.312486           -1.139692            3.333089
 C            4.106891           -0.411004            4.462675
 C            5.063252            0.587402            4.886914
 C            6.190798            0.813972            4.171607
 C            6.469578            0.064860            2.955093
 C            7.617508            0.282075            2.225768
 C            7.885053           -0.447300            1.023356
 C            9.057781           -0.232183            0.280292
 C            9.299597           -0.941385           -0.902562
 C           10.479745           -0.751976           -1.694176
 C           10.660398           -1.469497           -2.852501
 C           11.830443           -1.331891           -3.703269
 C           11.956379           -2.064610           -4.835493
 C           10.925702           -3.004721           -5.234568
 C            9.811723           -3.180324           -4.487731
 C            9.621735           -2.423052           -3.250874
 N            8.516860           -2.629337           -2.537864
 C            8.327390           -1.906274           -1.359937
 C            7.158142           -2.131563           -0.613434
 C            6.922739           -1.418046            0.571473
 C            5.739073           -1.633014            1.350603
 C            5.505290           -0.929618            2.510931
 C            3.459295           -3.453015            3.373392
 C            2.497757           -4.468576            3.005588
 C            1.442326           -4.167354            2.212126
 C            1.250064           -2.818424            1.699234
 C            0.177344           -2.501895            0.895766
 C            0.000232           -1.178657            0.377118
 C           -1.090261           -0.846313           -0.441736
 C           -1.244534            0.452913           -0.950195
 C           -2.353900            0.806236           -1.785479
 C           -2.502768            2.082801           -2.279604
 H          -12.030860            1.172744            6.280166
 H          -10.237569            2.731606            6.905423
 H           -8.366067            3.246213            5.311949
 H           -6.260343            2.708521            1.146215
 H           -5.083576            2.449057           -1.012856
 H           -8.508029           -0.888189           -2.489888
 H           -9.716696           -0.592340           -0.368795
 H          -10.908793           -0.304181            1.817070
 H          -12.032495            0.043899            4.053329
 H           -7.307076           -1.207541           -4.610026
 H           -5.399760           -0.617372           -6.109528
 H           -3.734861            1.057495           -5.424518
 H           -4.579514            4.045970           -4.225870
 H           -2.912589            5.757775           -3.646374
 H           -0.949377            5.191991           -2.210643
 H            0.308562            3.532973           -0.904389
 H            1.560431            1.890327            0.438153
 H            2.800088            0.260303            1.796949
 H            3.219262           -0.559331            5.078209
 H            4.842417            1.142615            5.797972
 H            6.921790            1.560374            4.480209
 H            8.348689            1.021387            2.552306
 H            9.788384            0.497339            0.629569
 H           11.223546           -0.029894           -1.355945
 H           12.595578           -0.620551           -3.393832
 H           12.829604           -1.972321           -5.480054
 H           11.083528           -3.561798           -6.158272
 H            9.018748           -3.877898           -4.764374
 H            6.435442           -2.868938           -0.971240
 H            5.019616           -2.375848            0.995966
 H            4.285150           -3.745918            4.021910
 H            2.654426           -5.475121            3.391614
 H            0.707692           -4.920773            1.929863
 H           -0.562375           -3.258850            0.635482
 H           -1.829825           -1.608935           -0.686318
 H           -3.086472            0.030535           -2.019801

