92

 C            7.098901            2.567390           -5.078111
 C            7.832522            2.437921           -3.958734
 C            7.347089            1.399155           -3.044042
 C            7.860007            1.018931           -1.838304
 C            7.227047           -0.042649           -1.090983
 C            7.748536           -0.454316            0.143804
 C            7.149757           -1.488153            0.877720
 C            5.980450           -2.142373            0.357509
 C            5.370541           -3.205853            1.124451
 C            5.929817           -3.564587            2.305240
 S            5.400115           -4.820967            3.415752
 C            6.717211           -4.496281            4.550754
 C            7.514700           -3.499587            4.128197
 C            7.115366           -2.920701            2.841022
 C            7.704936           -1.907120            2.143610
 C            5.461411           -1.741764           -0.891278
 C            4.301799           -2.468173           -1.469753
 C            4.519520           -3.575443           -2.229655
 C            3.416838           -4.307494           -2.810491
 C            2.139476           -3.905039           -2.609936
 C            1.840638           -2.728155           -1.806494
 C            0.543416           -2.314289           -1.600611
 C            0.246952           -1.156602           -0.811672
 C           -1.072584           -0.726597           -0.600421
 C           -1.348522            0.411139            0.173713
 C           -2.690845            0.863414            0.393878
 C           -2.956432            1.980852            1.153044
 C           -4.314772            2.469913            1.394068
 C           -5.469024            1.748422            0.798954
 C           -5.922391            2.103918           -0.488538
 C           -5.257836            3.122986           -1.270363
 C           -5.751175            3.435107           -2.492999
 S           -5.145006            4.630626           -3.631327
 C           -6.408306            4.272670           -4.816112
 C           -7.243018            3.308681           -4.389764
 C           -6.919246            2.784930           -3.058500
 C           -7.561203            1.814512           -2.346168
 C           -7.077454            1.446565           -1.035883
 C           -7.731190            0.458073           -0.286661
 C           -7.277645            0.093896            0.989151
 C           -6.122538            0.744963            1.544213
 C           -5.663739            0.359563            2.860359
 C           -6.345853           -0.595620            3.537166
 S           -6.009773           -1.233657            5.141084
 C           -7.388009           -2.340636            5.086202
 C           -8.067696           -2.244903            3.930051
 C           -7.518381           -1.257408            2.994878
 C           -7.967240           -0.920813            1.751301
 C           -4.534434            3.577162            2.153284
 C           -3.432986            4.304607            2.742808
 C           -2.155511            3.898302            2.550646
 C           -1.854533            2.720756            1.749038
 C           -0.557283            2.303294            1.549757
 C           -0.259548            1.145368            0.761587
 C            1.060049            0.714760            0.550701
 C            1.336351           -0.421379           -0.225716
 C            2.678823           -0.870319           -0.452935
 C            2.943696           -1.984899           -1.216593
 C            6.059628           -0.692898           -1.620313
 C            5.533131           -0.262080           -2.896358
 C            6.164340            0.735491           -3.561326
 S            5.742580            1.433103           -5.119443
 H            7.238318            3.246268           -5.904066
 H            8.709680            3.022016           -3.708711
 H            8.744411            1.495728           -1.420154
 H            8.639782            0.035189            0.538215
 H            4.474285           -3.690253            0.732018
 H            6.788119           -5.084277            5.451688
 H            8.383830           -3.122100            4.652815
 H            8.593613           -1.401459            2.516407
 H            5.529055           -3.940581           -2.421502
 H            3.654221           -5.186092           -3.409401
 H            1.297422           -4.445541           -3.040909
 H           -0.289117           -2.864801           -2.038510
 H           -1.897275           -1.284075           -1.044873
 H           -3.504998            0.294509           -0.060645
 H           -4.374884            3.612734           -0.854783
 H           -6.423411            4.818358           -5.745922
 H           -8.090618            2.919640           -4.940361
 H           -8.438986            1.305941           -2.739885
 H           -8.611700           -0.033407           -0.701960
 H           -4.778535            0.847780            3.272829
 H           -7.579341           -2.980448            5.932666
 H           -8.945801           -2.820951            3.665374
 H           -8.841812           -1.397896            1.313428
 H           -5.543976            3.946262            2.337120
 H           -3.671651            5.183628            3.340657
 H           -1.314796            4.436498            2.987340
 H            0.274371            2.851745            1.992105
 H            1.884610            1.271631            0.996370
 H            3.493912           -0.300107           -0.001549
 H            4.639800           -0.751555           -3.289258

