56

 C            7.332919           -2.061626           -0.228230
 C            6.870403           -1.428865           -1.386654
 C            6.088721           -0.274725           -1.292114
 C            5.768606            0.250362           -0.031241
 C            4.947305            1.480659            0.072545
 C            5.544608            2.697705            0.173197
 C            4.755986            3.905939            0.271816
 C            3.402571            3.852224            0.265314
 C            2.703282            2.579760            0.159882
 C            1.327604            2.514485            0.151065
 C            0.642317            1.261144            0.048130
 C           -0.758961            1.183310            0.035397
 C           -1.414764           -0.053561           -0.064034
 C           -2.844454           -0.144943           -0.077789
 C           -3.486162           -1.358898           -0.176814
 C           -4.944898           -1.479667           -0.193979
 C           -5.768118           -0.248729           -0.119110
 C           -5.978897            0.524337           -1.270927
 C           -6.763945            1.677681           -1.200398
 C           -7.339156            2.063623            0.014836
 C           -7.127124            1.293989            1.163022
 C           -6.343946            0.138342            1.099773
 C           -5.541949           -2.698118           -0.280265
 C           -4.753674           -3.907491           -0.365380
 C           -3.400362           -3.853765           -0.360254
 C           -2.700888           -2.580535           -0.264316
 C           -1.325207           -2.515832           -0.252844
 C           -0.639347           -1.262343           -0.154320
 C            0.761886           -1.184457           -0.142694
 C            1.417831            0.052560           -0.043933
 C            2.847473            0.144465           -0.032946
 C            3.488670            1.359089            0.062798
 C            6.230555           -0.384915            1.130807
 C            7.010898           -1.539506            1.028616
 H            7.943613           -2.958896           -0.304925
 H            7.119368           -1.835477           -2.365453
 H            5.727375            0.219924           -2.192386
 H            6.629714            2.797138            0.180842
 H            5.290202            4.851931            0.350183
 H            2.795505            4.753644            0.338457
 H            0.729604            3.422689            0.223464
 H           -1.348597            2.097451            0.103889
 H           -3.417781            0.781916           -0.005844
 H           -5.531397            0.220473           -2.216073
 H           -6.928119            2.276384           -2.094831
 H           -7.952308            2.961002            0.066180
 H           -7.573536            1.594280            2.109577
 H           -6.177330           -0.462006            1.992726
 H           -6.627063           -2.797174           -0.292033
 H           -5.288048           -4.854040           -0.434960
 H           -2.793536           -4.755898           -0.426562
 H           -0.727707           -3.424933           -0.317812
 H            1.351370           -2.098707           -0.211234
 H            3.421322           -0.782203           -0.103182
 H            5.978568            0.023546            2.108207
 H            7.368900           -2.032744            1.930815

