84

 C            9.610072            2.895397            0.446340
 C            9.847244            1.824356            1.310622
 C            9.065980            0.660606            1.227701
 C            8.029215            0.583780            0.256798
 C            7.796752            1.680177           -0.618773
 C            8.596425            2.829190           -0.512045
 C            6.730893            1.573304           -1.600231
 C            5.969445            0.457331           -1.694321
 C            6.182225           -0.682975           -0.818389
 C            5.406747           -1.856894           -0.903355
 C            4.351289           -2.009830           -1.934594
 C            4.643288           -2.614779           -3.117229
 C            3.625849           -2.803572           -4.126930
 C            2.354455           -2.388446           -3.913543
 C            1.979628           -1.729073           -2.670965
 C            0.689900           -1.300247           -2.449554
 C            0.321504           -0.646645           -1.229813
 C           -0.992195           -0.211961           -0.993200
 C           -1.338361            0.431479            0.205197
 C           -2.673722            0.887826            0.456376
 C           -3.007237            1.519915            1.633236
 C           -4.358889            2.006995            1.913961
 C           -5.413361            1.859838            0.880855
 C           -6.181800            0.682455            0.780888
 C           -5.961980           -0.467836            1.641954
 C           -6.716217           -1.587305            1.533091
 C           -7.781541           -1.688074            0.550357
 C           -8.573752           -2.840609            0.428397
 C           -9.587308           -2.900506           -0.530546
 C           -9.831321           -1.819978           -1.380895
 C           -9.057210           -0.652501           -1.282743
 C           -8.021010           -0.581750           -0.310734
 C           -7.213298            0.611615           -0.197402
 C           -7.456040            1.711926           -1.064938
 C           -8.524645            1.611407           -2.044228
 C           -9.282915            0.493642           -2.147188
 C           -6.660721            2.863660           -0.951273
 C           -5.654313            2.933224            0.010572
 C           -4.651509            2.608295            3.098461
 C           -3.634676            2.793361            4.109633
 C           -2.363354            2.378764            3.895651
 C           -1.987902            1.723304            2.651229
 C           -0.698008            1.295141            2.429356
 C           -0.329148            0.643820            1.208677
 C            0.984696            0.209616            0.971806
 C            1.330889           -0.433492           -0.226652
 C            2.666339           -0.889518           -0.477913
 C            2.999444           -1.523170           -1.653977
 C            5.641701           -2.921095           -0.020304
 C            6.648838           -2.845476            0.940370
 C            7.450617           -1.696920            1.039896
 C            7.214297           -0.605972            0.158855
 C            8.519960           -1.590392            2.017838
 C            9.284946           -0.475959            2.106504
 H           10.223520            3.793242            0.520094
 H           10.641358            1.891815            2.052179
 H            8.424926            3.671474           -1.180181
 H            6.566049            2.426695           -2.257912
 H            5.166949            0.381210           -2.431459
 H            5.648190           -2.976716           -3.335062
 H            3.920208           -3.291385           -5.055213
 H            1.573939           -2.531935           -4.659576
 H           -0.081054           -1.450930           -3.205024
 H           -1.756301           -0.377883           -1.752670
 H           -3.427550            0.720934           -0.316596
 H           -5.159901           -0.396285            2.380119
 H           -6.545767           -2.448510            2.179104
 H           -8.396534           -3.690977            1.084729
 H          -10.194986           -3.801182           -0.615962
 H          -10.625019           -1.882638           -2.123201
 H           -8.694291            2.471569           -2.691739
 H          -10.086242            0.420453           -2.880007
 H           -6.832128            3.709317           -1.616273
 H           -5.044163            3.833953            0.092226
 H           -5.656449            2.969844            3.316695
 H           -3.929786            3.277969            5.039419
 H           -1.583123            2.519783            4.642620
 H            0.072671            1.444604            3.185462
 H            1.748831            0.375713            1.731326
 H            3.420572           -0.720951            0.294405
 H            5.026480           -3.819211           -0.090892
 H            6.815872           -3.684214            1.615205
 H            8.684549           -2.443438            2.675994
 H           10.088874           -0.398270            2.838300

