116

 C           17.153134            4.437446           -0.379062
 C           16.430756            5.551699           -0.964982
 C           15.150626            5.405329           -1.378239
 C           14.458033            4.127996           -1.248756
 C           13.160981            3.962011           -1.660556
 C           12.487180            2.696137           -1.524705
 C           11.169569            2.522897           -1.934251
 C           10.514227            1.274134           -1.791761
 C            9.169409            1.090964           -2.200271
 C            8.532805           -0.136850           -2.054429
 C            7.168348           -0.335375           -2.470731
 C            6.547646           -1.549631           -2.327469
 C            5.174706           -1.765761           -2.763640
 C            4.577268           -2.975722           -2.623365
 C            3.194432           -3.219160           -3.100162
 C            2.979236           -3.657152           -4.369305
 C            1.638020           -3.895009           -4.855101
 C            0.564709           -3.680629           -4.057347
 C            0.729368           -3.210008           -2.689211
 C           -0.355950           -2.981671           -1.872744
 C           -0.191451           -2.525495           -0.525001
 C           -1.291990           -2.284300            0.312150
 C           -1.114298           -1.845976            1.633752
 C           -2.229348           -1.589568            2.496285
 C           -2.050875           -1.168982            3.795234
 C           -3.171102           -0.893115            4.695583
 C           -4.557003           -1.044784            4.190876
 C           -5.164641           -0.065924            3.473872
 C           -6.539564           -0.211717            3.015738
 C           -7.170389            0.772144            2.298412
 C           -8.535816            0.625548            1.864272
 C           -9.182762            1.620871            1.139612
 C          -10.528331            1.468225            0.721393
 C          -11.194444            2.476526           -0.019641
 C          -12.513012            2.316254           -0.431189
 C          -13.197839            3.332140           -1.188882
 C          -14.496161            3.165341           -1.596287
 C          -15.199802            4.184968           -2.366562
 C          -16.481491            4.003356           -2.760749
 C          -17.194407            2.783901           -2.427102
 C          -16.592613            1.802957           -1.715304
 C          -15.213013            1.938355           -1.260649
 C          -14.587081            0.955134           -0.538398
 C          -13.223323            1.100802           -0.097299
 C          -12.579841            0.107653            0.633756
 C          -11.234727            0.260166            1.055379
 C          -10.566410           -0.748641            1.794007
 C           -9.244626           -0.590655            2.197904
 C           -8.552607           -1.609677            2.945435
 C           -7.252044           -1.442498            3.345940
 C           -6.539631           -2.464687            4.105090
 C           -5.261809           -2.279805            4.506643
 C           -2.954170           -0.499748            5.979214
 C           -1.610858           -0.332782            6.488040
 C           -0.537172           -0.561035            5.694595
 C           -0.703205           -0.987181            4.312279
 C            0.382433           -1.219046            3.497031
 C            0.217720           -1.648442            2.140770
 C            1.318060           -1.882418            1.301025
 C            1.140236           -2.312906           -0.022910
 C            2.254386           -2.548111           -0.892843
 C            2.075593           -2.979661           -2.187983
 C            5.289714           -4.089828           -2.012654
 C            6.566871           -3.942177           -1.593559
 C            7.269563           -2.671179           -1.733600
 C            8.569762           -2.511415           -1.329014
 C            9.251671           -1.250357           -1.474410
 C           10.572868           -1.081136           -1.073425
 C           11.230715            0.166568           -1.217330
 C           12.574666            0.352618           -0.805775
 C           13.207466            1.583672           -0.944243
 C           14.569538            1.788744           -0.522042
 C           15.184707            3.006405           -0.660519
 C           16.562133            3.228731           -0.234463
 H           18.180508            4.613407           -0.063603
 H           16.956811            6.500797           -1.056624
 H           14.594591            6.231673           -1.819676
 H           12.604690            4.788187           -2.102732
 H           10.621404            3.356246           -2.373119
 H            8.632809            1.934081           -2.634957
 H            6.642088            0.512705           -2.908707
 H            4.649484           -0.921786           -3.211576
 H            3.807414           -3.837788           -5.054602
 H            1.528351           -4.247876           -5.879928
 H           -0.451735           -3.852887           -4.409893
 H           -1.369017           -3.145591           -2.239741
 H           -2.301036           -2.440496           -0.069648
 H           -3.233425           -1.737061            2.092522
 H           -4.646025            0.860405            3.224925
 H           -6.651621            1.695499            2.040644
 H           -8.653747            2.538583            0.883143
 H          -10.653719            3.389834           -0.266903
 H          -12.648766            4.242055           -1.430131
 H          -14.650695            5.094002           -2.609592
 H          -17.015645            4.757686           -3.336465
 H          -18.223664            2.692233           -2.770857
 H          -17.114012            0.881754           -1.458166
 H          -15.108879            0.034166           -0.279555
 H          -13.110041           -0.809043            0.890925
 H          -11.107368           -1.660821            2.044869
 H           -9.097534           -2.522733            3.184362
 H           -7.080926           -3.382053            4.336687
 H           -4.719061           -3.037480            5.071775
 H           -3.783334           -0.294192            6.656293
 H           -1.500004           -0.015484            7.524317
 H            0.480804           -0.435560            6.062389
 H            1.396147           -1.080164            3.872649
 H            2.327117           -1.727790            1.683570
 H            3.257858           -2.372646           -0.498762
 H            4.754040           -5.033608           -1.911227
 H            7.114777           -4.767906           -1.139481
 H            9.122206           -3.339404           -0.885129
 H           11.121624           -1.916715           -0.639417
 H           13.112601           -0.490309           -0.372465
 H           15.098978            0.941910           -0.086031
 H           17.090904            2.383094            0.203652

