116

 C           18.179833           -2.491797            0.387381
 C           17.258597           -1.806878            1.104055
 C           15.971324           -1.440365            0.524101
 C           15.025954           -0.746934            1.235290
 C           13.756885           -0.394750            0.651801
 C           12.790670            0.305125            1.367295
 C           11.541782            0.637376            0.784750
 C           10.546074            1.342427            1.507531
 C            9.322046            1.658440            0.927725
 C            8.299441            2.369710            1.652621
 C            7.099090            2.684775            1.070166
 C            6.055286            3.405648            1.791048
 C            4.882003            3.722895            1.198531
 C            4.629442            3.356382           -0.188294
 C            3.339672            3.772878           -0.789712
 C            3.235102            4.977029           -1.412285
 C            1.986821            5.398633           -2.008563
 C            0.895489            4.597758           -1.967351
 C            0.945110            3.294701           -1.319603
 C           -0.156799            2.469736           -1.280620
 C           -0.110047            1.194745           -0.629986
 C           -1.229296            0.349277           -0.582648
 C           -1.170640           -0.894475            0.065290
 C           -2.307344           -1.764281            0.125703
 C           -2.244108           -2.985771            0.758019
 C           -3.391028           -3.890693            0.839985
 C           -4.679070           -3.473180            0.235690
 C           -4.950623           -3.884973           -1.134755
 C           -6.120849           -3.563092           -1.730720
 C           -7.142678           -2.792525           -1.030060
 C           -8.338297           -2.468444           -1.617247
 C           -9.338812           -1.707127           -0.912723
 C          -10.557240           -1.379971           -1.498109
 C          -11.530986           -0.625213           -0.796042
 C          -12.773769           -0.281442           -1.384906
 C          -13.718357            0.467181           -0.690309
 C          -14.981166            0.830384           -1.280525
 C          -15.905370            1.571597           -0.590096
 C          -17.186489            1.948520           -1.176915
 C          -18.087137            2.680341           -0.480754
 C          -17.802577            3.113251            0.875164
 C          -16.630657            2.793579            1.471563
 C          -15.619290            2.007135            0.773938
 C          -14.426263            1.674265            1.361973
 C          -13.434440            0.900056            0.660653
 C          -12.219370            0.564504            1.248477
 C          -11.248535           -0.193476            0.547060
 C          -10.005063           -0.535013            1.136131
 C           -9.056858           -1.276112            0.439354
 C           -7.792435           -1.633187            1.030107
 C           -6.862541           -2.365515            0.337839
 C           -5.587573           -2.744262            0.931679
 C           -3.286447           -5.096508            1.459436
 C           -2.039535           -5.517069            2.059318
 C           -0.949273           -4.714293            2.023448
 C           -0.998086           -3.410871            1.376501
 C            0.103643           -2.585104            1.339663
 C            0.057770           -1.310565            0.688395
 C            1.177236           -0.464744            0.640949
 C            1.118874            0.778360           -0.007833
 C            2.256023            1.647995           -0.070455
 C            2.192224            2.869009           -0.703364
 C            5.557264            2.671158           -0.902701
 C            6.836441            2.299402           -0.313446
 C            7.786912            1.613540           -1.024988
 C            9.056944            1.267478           -0.439806
 C           10.026541            0.575207           -1.156940
 C           11.275986            0.245509           -0.573827
 C           12.268798           -0.462181           -1.296577
 C           13.489755           -0.786850           -0.714871
 C           14.503868           -1.510270           -1.438120
 C           15.702306           -1.833952           -0.855992
 C           16.735899           -2.569840           -1.575807
 C           17.912385           -2.882487           -0.984669
 H           19.143348           -2.770521            0.811489
 H           17.444659           -1.506827            2.134632
 H           15.212522           -0.445017            2.265621
 H           12.987126            0.606770            2.395937
 H           10.754145            1.637297            2.535987
 H            8.511141            2.651255            2.684019
 H            6.261296            3.679339            2.825933
 H            4.093590            4.257090            1.728438
 H            4.085612            5.655201           -1.481223
 H            1.961793            6.376374           -2.488375
 H           -0.051574            4.900450           -2.412635
 H           -1.093257            2.774250           -1.747729
 H           -2.159340            0.662958           -1.056789
 H           -3.234187           -1.429905           -0.345396
 H           -4.178605           -4.456040           -1.650088
 H           -6.340547           -3.869585           -2.753487
 H           -8.562665           -2.780140           -2.637180
 H          -10.777716           -1.704257           -2.515011
 H          -12.982697           -0.613186           -2.401706
 H          -15.180400            0.497362           -2.298785
 H          -17.385141            1.616826           -2.195319
 H          -19.046195            2.966621           -0.909814
 H          -18.563975            3.700305            1.386744
 H          -16.401979            3.111008            2.488375
 H          -14.197417            1.989734            2.379604
 H          -11.999173            0.886340            2.266130
 H           -9.797762           -0.204980            2.154018
 H           -7.597288           -1.304173            2.050856
 H           -5.394032           -2.423795            1.955621
 H           -4.136116           -5.776014            1.524143
 H           -2.014596           -6.495659            2.537455
 H           -0.003539           -5.016292            2.472108
 H            1.039224           -2.889433            1.808667
 H            2.107096           -0.778548            1.115372
 H            3.183706            1.313105            0.398608
 H            5.377434            2.383082           -1.938633
 H            7.604741            1.315176           -2.057431
 H            9.831937            0.275482           -2.186586
 H           12.061051           -0.753515           -2.325916
 H           14.287574           -1.794735           -2.467516
 H           16.519937           -2.855723           -2.604630
 H           18.689929           -3.432577           -1.512717

