116

 C           -7.311003            5.074878            5.836965
 C           -6.130854            4.498295            6.454393
 C           -5.551283            3.389869            5.938025
 C           -6.092744            2.740083            4.749608
 C           -5.522650            1.613416            4.215008
 C           -6.070031            0.980380            3.042660
 C           -5.504016           -0.169423            2.502037
 C           -6.045775           -0.789640            1.348031
 C           -7.200784           -0.201835            0.724034
 C           -7.775472            0.966871            1.284287
 C           -7.239776            1.560907            2.421608
 C           -7.817837            2.743478            3.006346
 C           -7.278680            3.321564            4.126784
 C           -7.856296            4.517165            4.731221
 C           -7.748123           -0.805291           -0.434548
 C           -7.189710           -1.954831           -0.981075
 C           -7.752683           -2.575187           -2.153065
 C           -7.212793           -3.716158           -2.687417
 C           -7.784652           -4.366347           -3.861231
 C           -7.236964           -5.493942           -4.370948
 C           -6.056115           -6.084613           -3.768311
 C           -5.481627           -5.523802           -2.678843
 C           -6.032543           -4.316277           -2.073809
 C           -5.476056           -3.745329           -0.958253
 C           -6.029317           -2.556211           -0.361528
 C           -5.487317           -1.977502            0.790838
 C           -4.338117           -2.623045            1.475134
 C           -4.564826           -3.559901            2.435072
 C           -3.465726           -4.216704            3.106234
 C           -2.183568           -3.914878            2.791479
 C           -1.874896           -2.914360            1.779967
 C           -0.573345           -2.594772            1.462970
 C           -0.269518           -1.603193            0.475515
 C            1.054120           -1.269405            0.147679
 C            1.336827           -0.293098           -0.820182
 C            2.683444            0.056418           -1.165348
 C            2.955361            1.015066           -2.115360
 C            4.319203            1.391322           -2.491291
 C            5.469250            0.702938           -1.851586
 C            5.992950           -0.461528           -2.422843
 C            5.420025           -1.066088           -3.598462
 C            5.958309           -2.193912           -4.162592
 C            5.387071           -2.807024           -5.356415
 C            5.943103           -3.909293           -5.910670
 C            7.124576           -4.517348           -5.326872
 C            7.691277           -3.999929           -4.212185
 C            7.139203           -2.812689           -3.569145
 C            7.698258           -2.270287           -2.441170
 C            7.154774           -1.085085           -1.828476
 C            7.733917           -0.529116           -0.693626
 C            7.206164            0.642766           -0.098449
 C            7.803193            1.214188            1.053738
 C            7.287502            2.365339            1.638546
 C            7.889882            2.963232            2.802411
 C            7.370504            4.097690            3.371041
 C            7.973338            4.716109            4.546958
 C            7.446845            5.835333            5.095874
 C            6.262395            6.453757            4.529327
 C            5.659883            5.924993            3.439202
 C            6.180360            4.721763            2.799459
 C            5.586920            4.174647            1.691142
 C            6.114126            2.988159            1.067201
 C            5.525567            2.436149           -0.065547
 C            6.048699            1.269546           -0.678381
 C            4.545397            2.359297           -3.420027
 C            3.446012            3.034757           -4.071804
 C            2.163997            2.716223           -3.773482
 C            1.855882            1.695674           -2.782038
 C            0.554416            1.373883           -2.467126
 C            0.250824            0.376652           -1.485313
 C           -1.072776            0.042654           -1.157813
 C           -1.355439           -0.934550           -0.190834
 C           -2.702078           -1.285076            0.152938
 C           -2.974128           -2.243210            1.103427
 H           -7.735031            5.966768            6.296028
 H           -5.735063            4.990225            7.341420
 H           -4.664335            2.946610            6.390053
 H           -4.636000            1.166528            4.665624
 H           -4.621044           -0.609976            2.971208
 H           -8.655304            1.397945            0.807595
 H           -8.701728            3.165912            2.529610
 H           -8.741355            4.939157            4.256673
 H           -8.626293           -0.354691           -0.896214
 H           -8.629477           -2.109623           -2.602025
 H           -8.668801           -3.910076           -4.304574
 H           -7.659702           -5.991407           -5.242528
 H           -5.655116           -6.987847           -4.225235
 H           -4.592439           -5.952999           -2.217425
 H           -4.590277           -4.184432           -0.493133
 H           -5.578398           -3.842264            2.721499
 H           -3.709420           -4.958811            3.865595
 H           -1.344818           -4.406331            3.283132
 H            0.256837           -3.093606            1.963061
 H            1.875883           -1.777164            0.653081
 H            3.496400           -0.461142           -0.650442
 H            4.533986           -0.596996           -4.032817
 H            4.497700           -2.341317           -5.780562
 H            5.526455           -4.372649           -6.803452
 H            7.532209           -5.399186           -5.818893
 H            8.576205           -4.447109           -3.761179
 H            8.575715           -2.722923           -1.980415
 H            8.613302           -0.993790           -0.248509
 H            8.684486            0.734920            1.478993
 H            8.776073            2.484841            3.218171
 H            8.861138            4.240432            4.961892
 H            7.889634            6.304784            5.973152
 H            5.882464            7.351889            5.013521
 H            4.769345            6.377479            3.003749
 H            4.696487            4.625601            1.252277
 H            4.639133            2.905914           -0.498353
 H            5.558796            2.649189           -3.699535
 H            3.689353            3.800549           -4.807433
 H            1.324947            3.211149           -4.261053
 H           -0.275964            1.877422           -2.962103
 H           -1.894642            0.550470           -1.662940
 H           -3.514998           -0.767229           -0.361704

