92

 C          -10.815289            1.215522           -2.159854
 C           -9.973305            0.564463           -3.137613
 C           -8.868649           -0.122849           -2.750422
 C           -8.502421           -0.219275           -1.348184
 C           -7.382823           -0.922893           -0.932044
 C           -7.034313           -0.998521            0.443433
 C           -5.894733           -1.724340            0.882679
 C           -5.557047           -1.789550            2.225735
 C           -6.371627           -1.095330            3.197669
 C           -7.490970           -0.390121            2.781981
 C           -7.852453           -0.328111            1.409974
 C           -9.003359            0.381571            0.972871
 C           -9.337425            0.442677           -0.371138
 C          -10.512166            1.158563           -0.837920
 C           -5.992332           -1.153274            4.598024
 C           -4.898675           -1.851715            4.994951
 C           -4.090042           -2.561302            4.034303
 C           -4.401190           -2.538834            2.707982
 C           -3.571113           -3.293184            1.735751
 C           -3.837155           -4.601706            1.478714
 C           -3.022797           -5.357749            0.553071
 C           -1.969996           -4.780413           -0.073337
 C           -1.634171           -3.382853            0.158235
 C           -0.564338           -2.788199           -0.473072
 C           -0.242908           -1.409866           -0.254649
 C            0.846225           -0.795521           -0.892412
 C            1.145899            0.557564           -0.670480
 C            2.253562            1.196986           -1.316705
 C            2.549060            2.522557           -1.090634
 C            3.670339            3.202623           -1.740977
 C            4.500902            2.451010           -2.714998
 C            4.236399            2.541409           -4.048564
 C            5.046178            1.837262           -5.012157
 C            6.094301            1.074718           -4.610219
 C            6.421715            0.941223           -3.202014
 C            7.492231            0.166708           -2.781043
 C            7.804383            0.032247           -1.402150
 C            8.904840           -0.750044           -0.959018
 C            9.191384           -0.880080            0.391055
 C           10.313936           -1.671419            0.864506
 C           10.570211           -1.795028            2.191791
 C            9.729032           -1.141403            3.168607
 C            8.671985           -0.385919            2.775714
 C            8.357198           -0.216770            1.367899
 C            7.285995            0.555668            0.946475
 C            6.986810            0.702265           -0.434862
 C            5.896316            1.497262           -0.879011
 C            5.606464            1.631912           -2.228076
 C            3.942835            4.507910           -1.474297
 C            3.127384            5.263805           -0.549466
 C            2.066751            4.689510            0.066568
 C            1.724993            3.295022           -0.173966
 C            0.648802            2.703096            0.448985
 C            0.323684            1.326517            0.225620
 C           -0.767574            0.713121            0.860604
 C           -1.065339           -0.640706            0.641123
 C           -2.169560           -1.281508            1.291817
 C           -2.457754           -2.610176            1.075122
 H          -11.693835            1.748660           -2.520310
 H          -10.255068            0.645433           -4.186191
 H           -8.224358           -0.618447           -3.475628
 H           -6.750217           -1.430116           -1.660707
 H           -5.281164           -2.235039            0.137070
 H           -8.111610            0.130592            3.510522
 H           -9.624177            0.880012            1.716504
 H          -11.137042            1.645344           -0.090450
 H           -6.615952           -0.618038            5.312782
 H           -4.602305           -1.899305            6.042147
 H           -3.226325           -3.114870            4.402284
 H           -4.667461           -5.116064            1.962304
 H           -3.286111           -6.401295            0.384021
 H           -1.343340           -5.338437           -0.768121
 H            0.062993           -3.360336           -1.156270
 H            1.470430           -1.378381           -1.569964
 H            2.863894            0.599948           -1.998333
 H            3.409406            3.146133           -4.420385
 H            4.788546            1.941611           -6.065417
 H            6.718564            0.542773           -5.326806
 H            8.111654           -0.353548           -3.510903
 H            9.524705           -1.249203           -1.702924
 H           10.938462           -2.159307            0.117512
 H           11.408975           -2.385658            2.557363
 H            9.972003           -1.277232            4.221230
 H            8.028603            0.112182            3.500069
 H            6.654005            1.063523            1.675310
 H            5.281643            2.005261           -0.132367
 H            4.778965            5.020141           -1.950125
 H            3.395972            6.304748           -0.372852
 H            1.438409            5.247571            0.759800
 H            0.019982            3.275701            1.130468
 H           -1.393838            1.296834            1.535541
 H           -2.782191           -0.683627            1.970650

