104

 C          -14.828974           -3.977444            3.125010
 C          -14.224764           -5.112625            2.457267
 C          -13.094881           -4.963092            1.725020
 C          -12.454380           -3.662250            1.589698
 C          -11.302979           -3.492219            0.854319
 C          -10.680836           -2.207174            0.736253
 C           -9.502159           -2.026961           -0.003847
 C           -8.898718           -0.764390           -0.110109
 C           -7.695778           -0.569069           -0.863010
 C           -7.112307            0.673924           -0.965714
 C           -5.903950            0.889713           -1.745672
 C           -5.347143            2.124672           -1.846044
 C           -4.141392            2.365649           -2.674862
 C           -4.276931            2.705989           -3.984255
 C           -3.116105            2.935821           -4.815054
 C           -1.866470            2.810363           -4.307784
 C           -1.655053            2.451886           -2.912376
 C           -0.388501            2.323837           -2.386253
 C           -0.183276            1.983783           -1.010031
 C            1.103453            1.849496           -0.464638
 C            1.286983            1.519729            0.887381
 C            2.595071            1.371454            1.453887
 C            2.771113            1.054895            2.782244
 C            4.094371            0.892139            3.385386
 C            5.300195            1.052401            2.537494
 C            5.895083           -0.014100            1.942741
 C            7.102086            0.148444            1.147879
 C            7.722505           -0.923335            0.546225
 C            8.923438           -0.753536           -0.216169
 C            9.563844           -1.841057           -0.829465
 C           10.740429           -1.663780           -1.573817
 C           11.399958           -2.766485           -2.206997
 C           12.549142           -2.582973           -2.942732
 C           13.227006           -3.692528           -3.598354
 C           14.353780           -3.492434           -4.323303
 C           14.917152           -2.164775           -4.463255
 C           14.328648           -1.097254           -3.871891
 C           13.114754           -1.250623           -3.081982
 C           12.499821           -0.178083           -2.475399
 C           11.301292           -0.345070           -1.708478
 C           10.662649            0.742243           -1.091100
 C            9.483654            0.565591           -0.350520
 C            8.817135            1.667512            0.278573
 C            7.662329            1.482732            1.004760
 C            6.970363            2.591195            1.648495
 C            5.847596            2.390063            2.377462
 C            4.229182            0.595343            4.705394
 C            3.067881            0.425696            5.549947
 C            1.818628            0.550921            5.041921
 C            1.608143            0.869064            3.636599
 C            0.341945            0.997939            3.110268
 C            0.137343            1.322773            1.730219
 C           -1.149233            1.453996            1.184319
 C           -1.332756            1.777169           -0.169374
 C           -2.641019            1.906465           -0.739619
 C           -2.817651            2.230508           -2.066125
 C           -5.937265            3.260983           -1.156733
 C           -7.062330            3.109796           -0.419229
 C           -7.715021            1.813743           -0.293380
 C           -8.872522            1.648276            0.433335
 C           -9.500528            0.365253            0.548353
 C          -10.681914            0.185926            1.284725
 C          -11.282851           -1.077959            1.395264
 C          -12.483056           -1.277413            2.151930
 C          -13.061165           -2.522587            2.258751
 C          -14.276329           -2.744078            3.030397
 H          -15.736386           -4.153898            3.700362
 H          -14.709757           -6.081336            2.566299
 H          -12.628890           -5.806316            1.216852
 H          -10.839028           -4.336873            0.345482
 H           -9.047606           -2.881948           -0.503846
 H           -7.252256           -1.433191           -1.357505
 H           -5.466854            0.028033           -2.250557
 H           -5.260330            2.811112           -4.442591
 H           -3.286956            3.208464           -5.855693
 H           -0.983367            2.974749           -4.924124
 H            0.489477            2.481586           -3.012367
 H            1.975148            2.003087           -1.101153
 H            3.457022            1.514876            0.798457
 H            5.490088           -1.020747            2.047785
 H            7.310721           -1.928045            0.640578
 H            9.140330           -2.839918           -0.726860
 H           10.966538           -3.759753           -2.092217
 H           12.791343           -4.684193           -3.483426
 H           14.866483           -4.315062           -4.819219
 H           15.823505           -2.060545           -5.057551
 H           14.741037           -0.093689           -3.968511
 H           12.914728            0.825064           -2.569563
 H           11.089613            1.740208           -1.189036
 H            9.249628            2.661640            0.167533
 H            7.392756            3.587961            1.521328
 H            5.322645            3.211306            2.864993
 H            5.212230            0.475274            5.160869
 H            3.238205            0.192914            6.600319
 H            0.934989            0.420036            5.665466
 H           -0.536512            0.855147            3.739290
 H           -2.021130            1.302149            1.820984
 H           -3.502886            1.738214           -0.090007
 H           -5.441661            4.226105           -1.259521
 H           -7.515992            3.952681            0.102192
 H           -9.336624            2.495386            0.938001
 H          -11.140290            1.042132            1.779326
 H          -12.929122           -0.414641            2.645858
 H          -14.719674           -1.881855            3.526934

