104

 C           15.891343           -2.286763            0.310743
 C           14.977359           -2.054671           -0.661828
 C           13.727192           -1.366969           -0.369398
 C           12.784430           -1.126526           -1.343520
 C           11.554298           -0.458097           -1.038546
 C           10.583743           -0.217583           -2.023472
 C            9.379974            0.433668           -1.712091
 C            8.378934            0.679506           -2.707486
 C            7.204881            1.326628           -2.394466
 C            6.177952            1.585874           -3.394280
 C            5.035694            2.238395           -3.075060
 C            4.806811            2.704618           -1.716865
 C            3.555164            3.450707           -1.441731
 C            3.523537            4.802775           -1.581959
 C            2.314957            5.549722           -1.312093
 C            1.188148            4.917591           -0.906043
 C            1.159141            3.472271           -0.733726
 C            0.019556            2.823075           -0.314037
 C           -0.011647            1.400046           -0.157620
 C           -1.169572            0.730331            0.267233
 C           -1.187219           -0.665889            0.408331
 C           -2.363611           -1.362590            0.836694
 C           -2.375040           -2.732150            0.977249
 C           -3.562819           -3.471139            1.406099
 C           -4.813545           -2.725340            1.686375
 C           -5.049842           -2.284925            3.051926
 C           -6.192438           -1.635592            3.376496
 C           -7.212425           -1.354837            2.375440
 C           -8.387439           -0.712185            2.693921
 C           -9.381801           -0.444998            1.697354
 C          -10.586756            0.201254            2.014368
 C          -11.550811            0.462904            1.028458
 C          -12.782392            1.125784            1.339536
 C          -13.718881            1.387046            0.364727
 C          -14.970928            2.068418            0.663824
 C          -15.878791            2.321083           -0.309351
 C          -15.628568            1.914729           -1.677624
 C          -14.481602            1.275287           -2.011002
 C          -13.466521            0.980901           -1.008695
 C          -12.291568            0.337968           -1.328367
 C          -11.300755            0.060876           -0.330773
 C          -10.097129           -0.588656           -0.646864
 C           -9.133090           -0.851228            0.339171
 C           -7.903854           -1.519455            0.030468
 C           -6.965720           -1.775638            1.005584
 C           -5.723674           -2.472372            0.710199
 C           -3.531133           -4.823257            1.546167
 C           -2.324102           -5.570814            1.271624
 C           -1.198313           -4.938875            0.862102
 C           -1.168974           -3.493459            0.691288
 C           -0.029759           -2.844289            0.270126
 C            0.001818           -1.421235            0.115227
 C            1.159932           -0.751347           -0.309394
 C            1.177771            0.644789           -0.449658
 C            2.354802            1.341832           -0.876206
 C            2.366218            2.711298           -1.016655
 C            5.724248            2.473590           -0.741952
 C            6.966014            1.774158           -1.031712
 C            7.910880            1.539348           -0.057723
 C            9.139255            0.867097           -0.360877
 C           10.109985            0.626113            0.624105
 C           11.312432           -0.028203            0.313654
 C           12.310009           -0.283281            1.310389
 C           13.483428           -0.931881            0.996724
 C           14.505205           -1.204263            1.998459
 C           15.650037           -1.850781            1.671506
 H           16.827578           -2.802836            0.103406
 H           15.144661           -2.374369           -1.689655
 H           12.955685           -1.443407           -2.371879
 H           10.767688           -0.542626           -3.047269
 H            8.571674            0.340568           -3.725089
 H            6.365347            1.235552           -4.409250
 H            4.259282            2.435273           -3.814017
 H            4.405285            5.359779           -1.898374
 H            2.348338            6.630405           -1.446116
 H            0.269925            5.465296           -0.697400
 H           -0.887906            3.384385           -0.092254
 H           -2.069691            1.303164            0.490576
 H           -3.259160           -0.774808            1.049793
 H           -4.278605           -2.498071            3.791820
 H           -6.385313           -1.304076            4.396749
 H           -8.586214           -0.393243            3.716833
 H          -10.776925            0.505656            3.043377
 H          -12.960053            1.421333            2.373164
 H          -15.144939            2.366071            1.697165
 H          -16.816804            2.831907           -0.096929
 H          -16.392768            2.141318           -2.419553
 H          -14.280823            0.962514           -3.034920
 H          -12.090621            0.026418           -2.353160
 H           -9.907400           -0.893896           -1.675663
 H           -7.728835           -1.825233           -1.000914
 H           -5.553412           -2.788832           -0.319004
 H           -4.412085           -5.379910            1.865382
 H           -2.357618           -6.651589            1.404686
 H           -0.281398           -5.487184            0.649512
 H            0.876829           -3.406059            0.046081
 H            2.059776           -1.324467           -0.532966
 H            3.250686            0.753969           -1.087522
 H            5.559736            2.809813            0.281904
 H            7.741805            1.865476            0.968423
 H            9.926307            0.952157            1.647629
 H           12.115332            0.049772            2.329633
 H           14.311028           -0.869232            3.016612
 H           16.419082           -2.061387            2.413195

