104

 C           12.196704            0.181530            4.861617
 C           11.261685            1.029800            5.573091
 C           10.144566            1.492756            4.962255
 C            9.852531            1.156712            3.575560
 C            8.726693            1.623220            2.934728
 C            8.455125            1.284767            1.568994
 C            7.313349            1.759798            0.905037
 C            7.052465            1.411040           -0.429610
 C            5.891065            1.889372           -1.119070
 C            5.634264            1.535028           -2.424805
 C            6.553095            0.648854           -3.122096
 C            7.680629            0.185348           -2.481332
 C            7.969890            0.549786           -1.127165
 C            9.118275            0.084139           -0.467790
 C            9.379475            0.434219            0.865772
 C           10.545891           -0.037481            1.551315
 C           10.790046            0.303801            2.862437
 C           11.972411           -0.165829            3.571607
 C            6.251909            0.270497           -4.495225
 C            5.144558            0.736632           -5.120303
 C            4.232885            1.629427           -4.440035
 C            4.461555            2.016026           -3.156421
 C            3.526283            2.951838           -2.483354
 C            3.698712            4.294895           -2.607945
 C            2.782076            5.222512           -1.982918
 C            1.725729            4.773168           -1.264199
 C            1.488673            3.347157           -1.090817
 C            0.418060            2.881035           -0.360613
 C            0.195492            1.478182           -0.177344
 C           -0.891195            0.994818            0.568315
 C           -1.092034           -0.382947            0.745835
 C           -2.194298           -0.890144            1.508309
 C           -2.388494           -2.242587            1.677990
 C           -3.498865           -2.787710            2.460550
 C           -4.432170           -1.852382            3.137139
 C           -4.193238           -1.457570            4.416304
 C           -5.104630           -0.568365            5.101635
 C           -6.222392           -0.114509            4.486021
 C           -6.534276           -0.501244            3.117634
 C           -7.672420           -0.050379            2.486691
 C           -7.971645           -0.421588            1.136586
 C           -9.130895            0.031125            0.487310
 C           -9.401153           -0.323982           -0.843067
 C          -10.578327            0.135206           -1.518626
 C          -10.830753           -0.209895           -2.827151
 C          -12.023776            0.247449           -3.526331
 C          -12.255727           -0.103030           -4.814169
 C          -11.319180           -0.943353           -5.532925
 C          -10.192974           -1.395958           -4.931085
 C           -9.891825           -1.055243           -3.547407
 C           -8.756536           -1.511164           -2.915672
 C           -8.475590           -1.167548           -1.553080
 C           -7.323891           -1.631534           -0.898465
 C           -7.053265           -1.276614            0.432673
 C           -5.881537           -1.743399            1.112592
 C           -5.615103           -1.382614            2.414677
 C           -3.671511           -4.130736            2.584900
 C           -2.758567           -5.058581            1.955028
 C           -1.704651           -4.609298            1.232521
 C           -1.465634           -3.183316            1.061874
 C           -0.395530           -2.717237            0.330797
 C           -0.171164           -1.314360            0.150129
 C            0.915910           -0.830925           -0.595031
 C            1.117231            0.546828           -0.771825
 C            2.220291            1.054178           -1.533139
 C            2.414049            2.406602           -1.703455
 H           13.078249           -0.162352            5.400343
 H           11.491114            1.277726            6.608228
 H            9.431648            2.129540            5.484695
 H            8.014880            2.261828            3.457811
 H            6.615684            2.408306            1.435642
 H            5.206850            2.547105           -0.577907
 H            8.379455           -0.474067           -2.995274
 H            9.816941           -0.561369           -0.999270
 H           11.239357           -0.677039            1.006131
 H           12.664785           -0.803897            3.023787
 H            6.950191           -0.399224           -4.995538
 H            4.908211            0.459831           -6.147074
 H            3.360299            1.981535           -4.990193
 H            4.528261            4.708207           -3.181842
 H            2.972115            6.286945           -2.116020
 H            1.023839            5.459354           -0.791572
 H           -0.285784            3.576435            0.096554
 H           -1.591138            1.700619            1.015999
 H           -2.884193           -0.170483            1.954923
 H           -3.312747           -1.801093            4.959388
 H           -4.859763           -0.284646            6.124551
 H           -6.921488            0.551124            4.990700
 H           -8.372246            0.604297            3.005390
 H           -9.831150            0.670522            1.024154
 H          -11.273395            0.768443           -0.968034
 H          -12.717924            0.878945           -2.973105
 H          -13.145260            0.231715           -5.345406
 H          -11.555082           -1.194275           -6.565847
 H           -9.479332           -2.027520           -5.458810
 H           -8.044231           -2.144886           -3.443910
 H           -6.626266           -2.276135           -1.433747
 H           -5.197511           -2.397599            0.567059
 H           -4.499459           -4.543904            3.161280
 H           -2.949643           -6.122982            2.086632
 H           -1.006554           -5.295716            0.754777
 H            0.306208           -3.412910           -0.129117
 H            1.615524           -1.536862           -1.042964
 H            2.911330            0.334463           -1.977867

