104

 C          -10.768219            3.713826           -0.337040
 C          -11.063950            2.591325           -1.172601
 C          -10.160260            1.572770           -1.310709
 C           -8.901749            1.616975           -0.619756
 C           -7.946491            0.574972           -0.747136
 C           -6.730891            0.621670           -0.081567
 C           -6.438787            1.753522            0.757576
 C           -7.363470            2.777186            0.892370
 C           -8.607453            2.733281            0.210741
 C           -9.577983            3.784837            0.335086
 C           -5.160359            1.803503            1.458782
 C           -4.248079            0.819895            1.335577
 C           -4.485606           -0.352248            0.497495
 C           -3.534563           -1.364868            0.383067
 C           -2.251427           -1.278978            1.127809
 C           -2.147512           -1.814581            2.400733
 C           -3.261645           -2.483429            3.059552
 C           -3.136921           -2.995838            4.307340
 C           -1.884608           -2.893467            5.027634
 C           -0.814563           -2.283816            4.463684
 C           -0.891546           -1.715219            3.124856
 C            0.191059           -1.092839            2.546496
 C            0.111359           -0.535642            1.230547
 C            1.218854            0.097133            0.643244
 C            1.151351            0.644670           -0.646618
 C            2.277144            1.297220           -1.268530
 C            3.555500            1.385291           -0.515955
 C            4.500136            0.364469           -0.607025
 C            4.267061           -0.812291           -1.439846
 C            5.169552           -1.808142           -1.533278
 C            6.431452           -1.768207           -0.802057
 C            7.341567           -2.809014           -0.898867
 C            8.568659           -2.775792           -0.186434
 C            9.522300           -3.846725           -0.268343
 C           10.696152           -3.785853            0.433045
 C           10.991579           -2.654577            1.256929
 C           10.103261           -1.618000            1.355198
 C            8.861878           -1.651521            0.633598
 C            7.921357           -0.592152            0.722010
 C            6.721303           -0.629421            0.028487
 C            5.736641            0.460877            0.123903
 C            5.975862            1.579033            0.905562
 C            5.026321            2.627976            1.006324
 C            5.283971            3.784165            1.818770
 C            4.359986            4.789390            1.909204
 C            3.126065            4.701099            1.193103
 C            2.854089            3.611389            0.410745
 C            3.800233            2.536773            0.293397
 C            2.175315            1.832153           -2.541513
 C            3.290131            2.502183           -3.198030
 C            3.167167            3.014536           -4.445940
 C            1.915887            2.911612           -5.167861
 C            0.845216            2.301179           -4.605926
 C            0.920253            1.731694           -3.267261
 C           -0.163180            1.108949           -2.690725
 C           -0.085725            0.551211           -1.374620
 C           -1.193452           -0.081168           -0.787119
 C           -1.126185           -0.628431            0.503200
 C           -3.781854           -2.509938           -0.434298
 C           -2.829669           -3.576391           -0.575269
 C           -3.105818           -4.661779           -1.362136
 C           -4.349819           -4.753273           -2.060254
 C           -5.279427           -3.755535           -1.947748
 C           -5.018090           -2.604518           -1.129120
 C           -5.975619           -1.565867           -1.001617
 C           -5.734173           -0.453968           -0.211719
 H          -11.510558            4.505667           -0.250084
 H          -12.020299            2.567984           -1.692522
 H          -10.375188            0.713387           -1.943716
 H           -8.190239           -0.274938           -1.387897
 H           -7.143612            3.634642            1.527986
 H           -9.343203            4.634858            0.973874
 H           -4.972630            2.673087            2.089655
 H           -3.293328            0.868707            1.866077
 H           -4.201733           -2.557046            2.508946
 H           -3.967715           -3.496162            4.802840
 H           -1.837970           -3.321174            6.027928
 H            0.136021           -2.197977            4.989014
 H            1.136793           -1.011887            3.083196
 H            2.153222            0.163092            1.205863
 H            3.324194           -0.854075           -1.991628
 H            4.985751           -2.680814           -2.160906
 H            7.123007           -3.672162           -1.527024
 H            9.288062           -4.703231           -0.898471
 H           11.425095           -4.592910            0.378965
 H           11.934764           -2.639513            1.800714
 H           10.317915           -0.751940            1.979305
 H            8.163665            0.263161            1.356247
 H            6.910644            1.671293            1.462760
 H            6.228673            3.838374            2.357260
 H            4.545049            5.669379            2.523468
 H            2.411612            5.517983            1.284440
 H            1.913798            3.539637           -0.139095
 H            4.228990            2.576358           -2.645301
 H            3.998250            3.515635           -4.940277
 H            1.870535            3.339540           -6.168172
 H           -0.104397            2.215294           -5.132847
 H           -1.107980            1.028161           -3.228932
 H           -2.127929           -0.147410           -1.349288
 H           -1.881608           -3.502044           -0.039196
 H           -2.387508           -5.473162           -1.470536
 H           -4.538006           -5.629787           -2.678403
 H           -6.231785           -3.812191           -2.472216
 H           -6.919118           -1.661790           -1.543174

