96

 C           -8.326560           -4.931052            0.801626
 C           -7.009327           -5.157175            0.311080
 C           -6.226310           -4.101132           -0.085117
 C           -6.711539           -2.757540           -0.014834
 C           -8.025492           -2.536264            0.473459
 C           -8.822294           -3.653745            0.880475
 C           -8.543586           -1.207588            0.555784
 C           -7.783658           -0.127073            0.167135
 C           -8.298880            1.236929            0.243927
 C           -7.553574            2.296459           -0.133814
 C           -6.195538            2.128910           -0.638315
 C           -5.652772            0.809860           -0.732743
 C           -6.442740           -0.331006           -0.330441
 C           -5.912491           -1.628545           -0.421542
 C           -4.568969           -1.791772           -0.925074
 C           -3.817597           -0.724557           -1.307129
 C           -4.335330            0.620704           -1.223996
 C           -3.573754            1.754839           -1.616746
 C           -2.194792            1.608211           -2.145146
 C           -1.973900            1.477658           -3.505755
 C           -3.062566            1.419495           -4.472189
 C           -2.819996            1.306755           -5.800289
 C           -1.462935            1.244370           -6.302424
 C           -0.411510            1.283859           -5.449461
 C           -0.613493            1.395838           -4.011146
 C            0.450266            1.435171           -3.138861
 C            0.248054            1.560587           -1.727396
 C            1.335617            1.614860           -0.840777
 C            1.146788            1.742757            0.543711
 C            2.248956            1.822323            1.470015
 C            3.630556            1.829106            0.928344
 C            4.354852            0.619929            0.745161
 C            3.794993           -0.672398            1.063088
 C            4.511388           -1.813550            0.878941
 C            5.858530           -1.784465            0.359640
 C            6.429286           -0.540951            0.041565
 C            7.774850           -0.470730           -0.479755
 C            8.499529           -1.626465           -0.667290
 C            7.940269           -2.902442           -0.351633
 C            8.700974           -4.098784           -0.550160
 C            8.165826           -5.325615           -0.247132
 C            6.842615           -5.419683            0.269974
 C            6.093604           -4.286221            0.468588
 C            6.620795           -2.992232            0.162975
 C            8.332246            0.841085           -0.796564
 C            7.621460            1.973545           -0.615425
 C            6.260166            1.940985           -0.093190
 C            5.676434            0.677386            0.232333
 C            5.522692            3.108280            0.094477
 C            4.215073            3.049750            0.602194
 C            2.027428            1.924886            2.832799
 C            3.116088            1.985532            3.799302
 C            2.873287            2.101060            5.127113
 C            1.516197            2.172388            5.628211
 C            0.464560            2.110791            4.777048
 C            0.666282            1.978089            3.340396
 C           -0.397794            1.914251            2.470281
 C           -0.195398            1.799112            1.057842
 C           -1.282721            1.748689            0.171142
 C           -1.093593            1.640237           -1.215147
 C           -4.118704            3.031692           -1.514157
 C           -5.422446            3.220553           -1.028523
 H           -8.927472           -5.785178            1.109752
 H           -6.637960           -6.179087            0.256658
 H           -5.216351           -4.272833           -0.461674
 H           -9.828304           -3.467553            1.253120
 H           -9.556176           -1.068789            0.933269
 H           -9.314291            1.361439            0.620865
 H           -7.941837            3.313579           -0.075505
 H           -4.169148           -2.805898           -0.991593
 H           -2.802153           -0.858310           -1.686726
 H           -4.082351            1.466136           -4.084936
 H           -3.631257            1.258181           -6.525193
 H           -1.323074            1.165288           -7.379359
 H            0.616165            1.236638           -5.808233
 H            1.474325            1.372550           -3.508055
 H            2.350156            1.556080           -1.241756
 H            2.776307           -0.704709            1.456042
 H            4.079645           -2.786755            1.122167
 H            9.514955           -1.588802           -1.060439
 H            9.711556           -4.013221           -0.946386
 H            8.739119           -6.239279           -0.395828
 H            6.439333           -6.403551            0.503405
 H            5.078969           -4.356713            0.864678
 H            9.349805            0.864725           -1.187294
 H            8.041022            2.951509           -0.852846
 H            5.955003            4.077882           -0.150455
 H            3.653079            3.974349            0.742692
 H            4.135652            1.930272            3.412706
 H            3.684245            2.141814            5.852913
 H            1.376657            2.276175            6.703108
 H           -0.563196            2.161297            5.135253
 H           -1.422465            1.951643            2.841319
 H           -2.297640            1.795378            0.572866
 H           -3.528445            3.898606           -1.815078
 H           -5.823476            4.231289           -0.961119

