96

 C            9.546805            3.700652           -0.367015
 C           10.188676            2.809134            0.538476
 C            9.557141            1.659480            0.944760
 C            8.248383            1.331114            0.470382
 C            7.612499            2.221531           -0.433476
 C            8.290978            3.414847           -0.840776
 C            6.307790            1.922390           -0.932349
 C            5.650482            0.773593           -0.551916
 C            4.325510            0.446530           -1.062770
 C            3.674811           -0.683435           -0.696291
 C            2.333386           -0.986506           -1.257476
 C            2.210134           -1.723351           -2.423013
 C            3.361762           -2.273054           -3.126268
 C            3.214898           -2.986109           -4.268591
 C            1.901261           -3.220596           -4.831394
 C            0.794234           -2.737900           -4.218219
 C            0.892017           -1.972153           -2.982845
 C           -0.229414           -1.485968           -2.350681
 C           -0.129436           -0.738625           -1.133893
 C           -1.276196           -0.254321           -0.484589
 C           -1.188302            0.472105            0.712730
 C           -2.352403            0.980217            1.394794
 C           -3.691254            0.687909            0.821744
 C           -4.362790           -0.427670            1.194298
 C           -5.677913           -0.751859            0.656594
 C           -6.354340           -1.888847            1.039028
 C           -7.644359           -2.190848            0.504842
 C           -8.340749           -3.374332            0.910461
 C           -9.580821           -3.664894            0.399541
 C          -10.188145           -2.788577           -0.543742
 C           -9.539110           -1.648241           -0.948871
 C           -8.246383           -1.314744           -0.435454
 C           -7.540067           -0.124585           -0.840331
 C           -6.272964            0.151625           -0.300089
 C           -5.551501            1.338784           -0.694815
 C           -4.260902            1.627761           -0.149876
 C           -3.589652            2.780256           -0.552606
 C           -4.170715            3.657485           -1.487102
 C           -5.420257            3.392022           -2.022542
 C           -6.128901            2.229821           -1.635103
 C           -7.432601            1.923353           -2.174169
 C           -8.102464            0.802152           -1.794666
 C           -2.229796            1.715028            2.561452
 C           -3.381248            2.271440            3.259613
 C           -3.235045            2.982582            4.403340
 C           -1.922527            3.207447            4.972909
 C           -0.815873            2.718303            4.364280
 C           -0.912382            1.955742            3.126901
 C            0.209048            1.466483            2.497093
 C            0.110327            0.722451            1.278167
 C            1.257115            0.238910            0.628258
 C            1.169503           -0.484818           -0.570748
 C            4.274170           -1.632023            0.248459
 C            5.576447           -1.341933            0.764364
 C            6.185271           -2.244459            1.673358
 C            5.494591           -3.417204            2.061473
 C            4.232234           -3.682047            1.556647
 C            3.620907           -2.794636            0.651510
 C            7.502232           -1.938779            2.179916
 C            8.155031           -0.807997            1.799011
 C            7.560074            0.130988            0.876944
 C            6.278844           -0.143203            0.370227
 H           10.069067            4.605803           -0.673433
 H           11.185673            3.056262            0.899464
 H           10.048712            0.975763            1.638918
 H            7.789431            4.088678           -1.534150
 H            5.843794            2.623404           -1.625646
 H            3.874714            1.151752           -1.763865
 H            4.348297           -2.093377           -2.694372
 H            4.072626           -3.403008           -4.794602
 H            1.840109           -3.792954           -5.755591
 H           -0.202237           -2.904539           -4.625730
 H           -1.222121           -1.662390           -2.766005
 H           -2.256968           -0.446775           -0.925968
 H           -3.935199           -1.125666            1.916885
 H           -5.916338           -2.579381            1.759270
 H           -7.865318           -4.037499            1.631980
 H          -10.116249           -4.562957            0.704035
 H          -11.172679           -3.039768           -0.934711
 H          -10.003875           -0.976551           -1.672546
 H           -2.603473            3.012784           -0.145634
 H           -3.624413            4.551778           -1.786403
 H           -5.866418            4.074284           -2.744661
 H           -7.863435            2.618236           -2.894523
 H           -9.088380            0.576077           -2.205936
 H           -4.366656            2.098574            2.822706
 H           -4.092614            3.404791            4.925365
 H           -1.862121            3.777967            5.898352
 H            0.179647            2.877613            4.777234
 H            1.201127            1.638319            2.916042
 H            2.237955            0.430189            1.070083
 H            5.964812           -4.108402            2.759469
 H            3.699616           -4.584199            1.856929
 H            2.625724           -3.027416            0.267437
 H            7.957518           -2.642846            2.875921
 H            9.151426           -0.582963            2.184988

