96

 C          -10.358097            0.165236            2.193948
 C           -9.327937            1.099607            2.410777
 C           -8.138838            1.016291            1.689243
 C           -7.969918           -0.026220            0.725683
 C           -9.013860           -0.961811            0.514255
 C          -10.209816           -0.850374            1.262771
 C           -8.821423           -2.004973           -0.465270
 C           -7.663475           -2.094422           -1.173195
 C           -6.581990           -1.156901           -0.976392
 C           -6.744763           -0.131859           -0.030791
 C           -5.686480            0.824942            0.194050
 C           -4.513140            0.727979           -0.519843
 C           -4.318786           -0.306387           -1.486367
 C           -3.093115           -0.412792           -2.232246
 C           -1.990524            0.557432           -2.012961
 C           -1.897903            1.702027           -2.786150
 C           -2.878375            2.034027           -3.811532
 C           -2.759753            3.154939           -4.563158
 C           -1.649578            4.063909           -4.366107
 C           -0.711175            3.809068           -3.423179
 C           -0.786798            2.618025           -2.587724
 C            0.167537            2.349475           -1.633180
 C            0.091277            1.176283           -0.816248
 C            1.066583            0.903184            0.156597
 C            0.999902           -0.244881            0.960807
 C            1.987398           -0.542839            1.968429
 C            3.095141            0.421034            2.189706
 C            4.318143            0.313090            1.439711
 C            4.497860           -0.705407            0.453728
 C            5.669982           -0.805795           -0.261693
 C            5.867769           -1.839453           -1.274441
 C            7.016426           -1.934731           -1.976631
 C            8.121662           -1.007679           -1.756429
 C            7.968615            0.017306           -0.771563
 C            9.028460            0.929629           -0.537970
 C           10.224239            0.812448           -1.285830
 C           10.356952           -0.185807           -2.237915
 C            9.311066           -1.096916           -2.476763
 C            8.851083            1.956246            0.461764
 C            7.691632            2.053057            1.166308
 C            6.594649            1.138802            0.947804
 C            6.743139            0.129157           -0.016476
 C            5.363326            1.240910            1.691741
 C            5.166148            2.254582            2.680436
 C            3.987907            2.340185            3.379205
 C            2.939309            1.414360            3.132648
 C            1.894482           -1.689267            2.739419
 C            2.878442           -2.027301            3.759679
 C            2.759733           -3.149991            4.508666
 C            1.645015           -4.054043            4.315740
 C            0.702865           -3.793341            3.378289
 C            0.780050           -2.601565            2.544090
 C           -0.176073           -2.329245            1.592677
 C           -0.097489           -1.156245            0.775918
 C           -1.072747           -0.883124           -0.196590
 C           -1.004780            0.263617           -1.002289
 C           -2.926214           -1.416325           -3.162295
 C           -3.963931           -2.357684           -3.395824
 C           -5.141946           -2.277902           -2.696019
 C           -5.351322           -1.252320           -1.722206
 C           -5.900404            1.876429            1.185069
 C           -7.049731            1.967181            1.886780
 H          -11.280060            0.248802            2.768981
 H           -9.469115            1.888497            3.147787
 H          -11.010974           -1.569312            1.099946
 H           -9.631621           -2.717039           -0.619471
 H           -7.524393           -2.885610           -1.913150
 H           -3.705031            1.445092           -0.357895
 H           -3.714620            1.346054           -3.950546
 H           -3.490708            3.405870           -5.330445
 H           -1.599911            4.949683           -4.997553
 H            0.129683            4.482103           -3.259770
 H            1.007265            3.028309           -1.482031
 H            1.897281            1.600564            0.286566
 H            3.679272           -1.407017            0.277595
 H            5.042584           -2.533332           -1.439543
 H            7.158451           -2.707498           -2.732487
 H           11.037702            1.513401           -1.105951
 H           11.278617           -0.273442           -2.812797
 H            9.440154           -1.872447           -3.229932
 H            9.673520            2.650135            0.633430
 H            7.563586            2.832305            1.920892
 H            5.974142            2.962977            2.871541
 H            3.839302            3.113236            4.132319
 H            2.012625            1.499477            3.700681
 H            3.718005           -1.342854            3.896638
 H            3.494038           -3.405806            5.271208
 H            1.595032           -4.941123            4.945326
 H           -0.141916           -4.462094            3.218013
 H           -1.018618           -3.004933            1.443487
 H           -1.903973           -1.580077           -0.325385
 H           -1.998364           -1.499111           -3.728742
 H           -3.806502           -3.139005           -4.138468
 H           -5.940402           -3.000069           -2.874841
 H           -5.087113            2.587929            1.333716
 H           -7.204249            2.753882            2.625718

