68

 C            5.695880            1.574105           -2.697531
 C            4.534413            0.782614           -2.935403
 C            3.918941            0.124644           -1.900913
 C            4.432119            0.220778           -0.568186
 C            5.588034            1.010273           -0.332096
 C            6.209489            1.686801           -1.430484
 C            6.111353            1.116489            0.995721
 C            5.501738            0.461808            2.035643
 C            4.343259           -0.332893            1.808133
 C            3.816901           -0.456819            0.541129
 C            2.612362           -1.298210            0.328314
 C            2.738009           -2.647301            0.044723
 C            4.034301           -3.296250           -0.101655
 C            4.133248           -4.621301           -0.365710
 C            2.945470           -5.436873           -0.511248
 C            1.713570           -4.885715           -0.394361
 C            1.547254           -3.465505           -0.114637
 C            0.299363           -2.897948            0.006291
 C            0.141936           -1.503019            0.288118
 C           -1.132203           -0.926693            0.414542
 C           -1.294685            0.438641            0.695522
 C           -2.592483            1.048671            0.843642
 C           -3.799335            0.190488            0.737730
 C           -4.302255           -0.416865            1.867265
 C           -5.470015           -1.227089            1.794074
 C           -6.112138           -1.414820            0.596593
 C           -5.612013           -0.802547           -0.596406
 C           -6.267044           -0.988537           -1.855945
 C           -5.774408           -0.395624           -2.990705
 C           -4.601460            0.412238           -2.929168
 C           -3.954718            0.607236           -1.735076
 C           -4.445915            0.004567           -0.533394
 C           -2.717024            2.403189            1.102394
 C           -4.012740            3.055405            1.239484
 C           -4.110436            4.379968            1.505994
 C           -2.921901            5.192372            1.663611
 C           -1.690720            4.641597            1.538299
 C           -1.526041            3.223351            1.248645
 C           -0.278786            2.655773            1.120496
 C           -0.123098            1.260189            0.842396
 C            1.150922            0.683819            0.715801
 C            1.313428           -0.683896            0.447917
 H            6.162711            2.084243           -3.538786
 H            4.147935            0.712326           -3.950928
 H            3.028807           -0.482533           -2.074508
 H            7.094555            2.290754           -1.237118
 H            6.998534            1.725646            1.160629
 H            5.891082            0.536447            3.050298
 H            3.880235           -0.842848            2.652787
 H            4.923433           -2.671886            0.005669
 H            5.099929           -5.110054           -0.477019
 H            3.081437           -6.497706           -0.715898
 H            0.809418           -5.483239           -0.503643
 H           -0.599933           -3.503262           -0.108051
 H           -2.014796           -1.558047            0.288644
 H           -3.814379           -0.282320            2.832599
 H           -5.840914           -1.690043            2.707685
 H           -7.008095           -2.029932            0.532103
 H           -7.160631           -1.609498           -1.891959
 H           -6.266787           -0.530901           -3.952482
 H           -4.231486            0.868450           -3.846019
 H           -3.055714            1.223693           -1.679725
 H           -4.902793            2.435591            1.114854
 H           -5.076953            4.871223            1.607966
 H           -3.056856            6.250165            1.884081
 H           -0.785822            5.237578            1.650725
 H            0.621168            3.260824            1.231515
 H            2.033242            1.318518            0.827025

