80

 C           10.208704            1.952413            0.672131
 C            9.592185            0.739117            0.608702
 C            8.229358            0.627065            0.140728
 C            7.573443           -0.610679            0.066476
 C            6.250351           -0.696976           -0.389204
 C            5.555359           -1.961891           -0.473503
 C            4.270377           -2.026862           -0.917361
 C            3.574794           -0.826384           -1.316750
 C            2.179387           -0.947874           -1.804961
 C            1.922021           -1.150469           -3.149629
 C            2.985262           -1.271474           -4.138699
 C            2.707735           -1.457815           -5.451467
 C            1.337812           -1.545164           -5.912920
 C            0.309221           -1.446136           -5.037373
 C            0.548203           -1.245299           -3.614444
 C           -0.492152           -1.139533           -2.719785
 C           -0.251570           -0.936031           -1.323216
 C           -1.314321           -0.822699           -0.412774
 C           -1.086976           -0.614916            0.956401
 C           -2.162826           -0.480190            1.906206
 C           -3.559054           -0.544119            1.409488
 C           -4.223690           -1.825733            1.391199
 C           -5.507749           -1.928360            0.951874
 C           -6.232574           -0.764548            0.493235
 C           -7.554833           -0.851396            0.035419
 C           -8.239533            0.290394           -0.406573
 C           -9.601846            0.223333           -0.884393
 C          -10.246445            1.345867           -1.309428
 C           -9.582778            2.622005           -1.290119
 C           -8.299239            2.727521           -0.846422
 C           -7.578543            1.561754           -0.387718
 C           -6.256261            1.648972            0.071191
 C           -5.571665            0.506992            0.510908
 C           -4.210045            0.579263            0.984364
 C           -1.905185           -0.287453            3.252348
 C           -2.968622           -0.155587            4.239847
 C           -2.691168            0.043582            5.550716
 C           -1.321256            0.129519            6.012613
 C           -0.292409            0.008216            5.139980
 C           -0.531177           -0.206510            3.719202
 C            0.509206           -0.325724            2.826212
 C            0.268647           -0.531324            1.430070
 C            1.331386           -0.647233            0.519856
 C            1.103895           -0.841526           -0.851122
 C            4.196910            0.388274           -1.251318
 C            5.558618            0.494227           -0.784598
 C            6.214381            1.731546           -0.712037
 C            7.537640            1.817750           -0.255917
 C            8.229260            3.084161           -0.173766
 C            9.514393            3.147422            0.273258
 H           11.234754            2.048654            1.023472
 H           10.107018           -0.173003            0.907213
 H            8.099077           -1.516527            0.367109
 H            6.092308           -2.860668           -0.171250
 H            3.735591           -2.974160           -0.985438
 H            4.014568           -1.206502           -3.780619
 H            3.499163           -1.547153           -6.193962
 H            1.170557           -1.692150           -6.978704
 H           -0.727289           -1.511091           -5.365400
 H           -1.526222           -1.205960           -3.058869
 H           -2.339863           -0.896697           -0.781886
 H           -3.666572           -2.695658            1.738941
 H           -6.021519           -2.889170            0.934826
 H           -8.057224           -1.818137            0.022120
 H          -10.093360           -0.748459           -0.893599
 H          -11.272414            1.306988           -1.671710
 H          -10.134967            3.493408           -1.638711
 H           -7.784217            3.686915           -0.825720
 H           -5.754257            2.616162            0.086139
 H           -3.718249            1.552050            0.994091
 H           -3.997889           -0.223689            3.882315
 H           -3.482976            0.144245            6.291424
 H           -1.154135            0.293195            7.075947
 H            0.744171            0.068510            5.468767
 H            1.543372           -0.262696            3.165830
 H            2.357102           -0.582538            0.890402
 H            3.681536            1.301054           -1.550291
 H            5.688898            2.637250           -1.014002
 H            7.691141            3.980303           -0.479351
 H           10.044863            4.096137            0.339695

