100

 C           -9.818264            2.186643            2.262527
 C           -8.855287            2.036453            3.336520
 C           -7.649468            1.464050            3.109863
 C           -7.280268            0.984099            1.783667
 C           -6.057273            0.404278            1.544827
 C           -5.716083           -0.059154            0.229102
 N           -4.503594           -0.629581            0.009001
 C           -4.215870           -1.059106           -1.250041
 C           -5.182360           -0.907564           -2.325691
 N           -6.399222           -0.334764           -2.105745
 C           -6.683835            0.091621           -0.847691
 C           -7.952795            0.699122           -0.565938
 C           -8.249669            1.135131            0.703363
 C           -9.531398            1.757679            1.011012
 C           -4.852920           -1.371244           -3.638927
 C           -3.632519           -1.955611           -3.886350
 C           -3.286470           -2.434702           -5.218347
 C           -2.087771           -3.014528           -5.464614
 C           -1.113376           -3.170669           -4.404069
 C           -1.382669           -2.741391           -3.148268
 C           -2.655623           -2.112743           -2.817752
 C           -2.942321           -1.678063           -1.534908
 C           -1.967247           -1.845124           -0.428202
 C           -2.018973           -2.965402            0.384260
 C           -3.016569           -4.012833            0.210762
 C           -3.039248           -5.104405            1.012847
 C           -2.067052           -5.262833            2.074214
 C           -1.117572           -4.319777            2.283496
 C           -1.045846           -3.125979            1.451687
 C           -0.081619           -2.165623            1.656013
 C           -0.009014           -0.998801            0.829988
 C            0.984103           -0.027470            1.035072
 C            1.074139            1.112494            0.222214
 C            2.094227            2.115424            0.404516
 C            3.068332            1.939257            1.510647
 C            2.863689            2.519358            2.750887
 C            1.683177            3.325513            3.035982
 C            1.493262            3.892609            4.250972
 C            2.463409            3.712617            5.311644
 C            3.577584            2.970686            5.106981
 C            3.834748            2.335856            3.820746
 C            4.965461            1.579069            3.618161
 C            5.205896            0.958396            2.351221
 N            6.328443            0.205228            2.178047
 C            6.526285           -0.372463            0.964532
 C            7.689413           -1.180789            0.735323
 C            7.896284           -1.772577           -0.487921
 C            9.068181           -2.601850           -0.740837
 C            9.266913           -3.183027           -1.947193
 C            8.316399           -2.994956           -3.026214
 C            7.209751           -2.235329           -2.849096
 C            6.938569           -1.584750           -1.572884
 C            5.815814           -0.814986           -1.384009
 C            5.569183           -0.186869           -0.116354
 N            4.451331            0.564185            0.056694
 C            4.247517            1.139844            1.273098
 C            2.168835            3.218915           -0.428355
 C            3.199959            4.238292           -0.286463
 C            3.248343            5.311008           -1.112415
 C            2.268136            5.478834           -2.164894
 C            1.286473            4.562805           -2.343139
 C            1.190019            3.386052           -1.489620
 C            0.201162            2.446282           -1.671118
 C            0.114989            1.287184           -0.835163
 C           -0.883857            0.320387           -1.034217
 C           -0.966025           -0.826479           -0.229719
 H          -10.773184            2.654075            2.501523
 H           -9.139995            2.399570            4.323451
 H           -6.915646            1.343016            3.907170
 H           -5.311915            0.276756            2.334589
 H           -8.661838            0.798479           -1.390980
 H          -10.244229            1.862202            0.193018
 H           -5.601194           -1.245753           -4.425115
 H           -4.030976           -2.307057           -6.004017
 H           -1.819811           -3.376769           -6.456781
 H           -0.163257           -3.641695           -4.653474
 H           -0.653220           -2.851620           -2.341539
 H           -3.749525           -3.883767           -0.586531
 H           -3.783650           -5.888734            0.887025
 H           -2.130593           -6.158317            2.689948
 H           -0.378036           -4.421744            3.076593
 H            0.650669           -2.275166            2.455870
 H            1.705050           -0.172093            1.841454
 H            0.956199            3.452976            2.229710
 H            0.611602            4.495229            4.466727
 H            2.261677            4.190973            6.269777
 H            4.317069            2.822336            5.893857
 H            5.706352            1.428496            4.407015
 H            8.392189           -1.304319            1.562545
 H            9.773160           -2.732762            0.080245
 H           10.139187           -3.805512           -2.144923
 H            8.527625           -3.485573           -3.975732
 H            6.486247           -2.084222           -3.650573
 H            5.081000           -0.656506           -2.177906
 H            3.937291            4.102295            0.505795
 H            4.019653            6.072934           -1.012631
 H            2.352431            6.359076           -2.799906
 H            0.539986            4.673302           -3.128501
 H           -0.537209            2.563430           -2.464203
 H           -1.610559            0.468930           -1.834633

