100

 C          -12.333939            1.817341           -1.995149
 C          -11.592306            1.520084           -3.205213
 C          -10.306719            1.100082           -3.143225
 C           -9.628638            0.933794           -1.863531
 C           -8.323714            0.506735           -1.792959
 C           -7.676025            0.348755           -0.521724
 N           -6.386114           -0.077982           -0.468097
 C           -5.812692           -0.215354            0.758760
 C           -4.454866           -0.668987            0.867191
 C           -3.861293           -0.819857            2.098926
 C           -4.609203           -0.510550            3.312904
 C           -5.911456           -0.072795            3.239788
 C           -6.556740            0.087057            1.970969
 N           -7.848494            0.514470            1.918024
 C           -8.421065            0.649533            0.692319
 C           -9.781406            1.093490            0.585667
 C          -10.374911            1.233632           -0.646350
 C          -11.755851            1.681400           -0.778401
 C           -3.951106           -0.677436            4.601502
 C           -2.672275           -1.114028            4.680942
 C           -1.924310           -1.427975            3.484285
 C           -2.482378           -1.292068            2.251484
 C           -1.685175           -1.637199            1.047522
 C           -1.759302           -2.905556            0.497854
 C           -2.646185           -3.935017            1.023857
 C           -2.691260           -5.172949            0.475454
 C           -1.855373           -5.511975           -0.657656
 C           -1.013080           -4.594165           -1.189436
 C           -0.920952           -3.248487           -0.639045
 C           -0.054981           -2.316590           -1.164321
 C            0.039101           -0.998041           -0.614662
 C            0.935579           -0.054387           -1.141619
 C            1.041094            1.237336           -0.603399
 C            1.964647            2.216767           -1.119178
 C            2.811342            1.851675           -2.282603
 C            2.397963            2.156405           -3.541654
 C            3.207311            1.823717           -4.692749
 C            4.398199            1.197883           -4.543220
 C            4.897786            0.838238           -3.223072
 C            6.106822            0.198097           -3.077103
 C            6.591666           -0.157302           -1.776639
 N            7.787541           -0.795966           -1.650582
 C            8.205244           -1.116926           -0.396935
 C            9.457258           -1.793260           -0.213259
 C            9.892231           -2.125975            1.047807
 C           11.160250           -2.813585            1.257891
 C           11.582425           -3.137998            2.502776
 C           10.781154           -2.809676            3.665882
 C            9.594378           -2.172203            3.531042
 C            9.085960           -1.795608            2.217830
 C            7.882039           -1.147543            2.073374
 C            7.400421           -0.786807            0.770304
 N            6.206863           -0.147727            0.643915
 C            5.787580            0.172307           -0.610676
 C            4.531930            0.843395           -0.794744
 C            4.088753            1.169780           -2.055267
 C            2.045043            3.482541           -0.564339
 C            2.974509            4.493155           -1.052239
 C            3.027683            5.727705           -0.496882
 C            2.155835            6.082878            0.603715
 C            1.273565            5.182722            1.099621
 C            1.176413            3.839050            0.545351
 C            0.285487            2.918374            1.048145
 C            0.194509            1.598197            0.501937
 C           -0.702756            0.654875            1.028026
 C           -0.794687           -0.643021            0.502354
 H          -13.365422            2.151139           -2.103572
 H          -12.106618            1.646913           -4.157253
 H           -9.736334            0.872483           -4.043837
 H           -7.742676            0.275830           -2.689299
 H           -3.917685           -0.890094           -0.062038
 H           -6.490740            0.163579            4.135645
 H          -10.317108            1.311532            1.512678
 H          -12.300362            1.900853            0.140100
 H           -4.529941           -0.438518            5.493497
 H           -2.169911           -1.244435            5.639426
 H           -0.898399           -1.779931            3.602835
 H           -3.274936           -3.671451            1.876107
 H           -3.353660           -5.944590            0.865633
 H           -1.930471           -6.521206           -1.059816
 H           -0.377091           -4.830859           -2.041714
 H            0.584058           -2.568798           -2.011255
 H            1.566497           -0.336631           -1.986994
 H            1.446665            2.660892           -3.716355
 H            2.823472            2.096762           -5.675738
 H            5.020948            0.942585           -5.400476
 H            6.729825           -0.058644           -3.937268
 H           10.040965           -2.029230           -1.106240
 H           11.750778           -3.054175            0.373771
 H           12.528634           -3.651807            2.669448
 H           11.168940           -3.094437            4.643426
 H            8.980310           -1.919382            4.395484
 H            7.258577           -0.888893            2.932888
 H            3.946980            1.080397            0.101214
 H            3.629430            4.217676           -1.880639
 H            3.723006            6.484614           -0.857573
 H            2.237649            7.089294            1.011677
 H            0.609448            5.432084            1.926459
 H           -0.373083            3.179569            1.877191
 H           -1.341570            0.940506            1.866297

