102

 C           11.142189            2.755179           -1.286707
 C           11.071090            1.414462           -1.059107
 C            9.818000            0.846876           -0.651296
 C            9.404741           -0.439804           -0.343136
 C           10.027987           -1.751753           -0.313747
 C           11.370564           -1.886238            0.080096
 C           11.967809           -3.148735            0.087720
 C           11.235259           -4.277880           -0.292517
 C            9.897091           -4.146196           -0.678775
 C            9.290207           -2.889405           -0.687554
 O            8.041444           -0.429441           -0.011422
 C            7.597452            0.897212           -0.116897
 C            6.202862            1.106246            0.227876
 C            5.457622            2.106067           -0.421080
 C            4.127115            2.327198           -0.064341
 C            3.528506            1.550307            0.939139
 C            2.113015            1.780596            1.316993
 C            1.775175            2.741929            2.253395
 C            2.771468            3.575110            2.913992
 C            2.414777            4.508859            3.828438
 C            1.023828            4.708593            4.179230
 C            0.054649            3.962084            3.598340
 C            0.379900            2.942575            2.609697
 C           -0.600039            2.177708            2.019634
 C           -0.276196            1.175242            1.050140
 C           -1.276515            0.392721            0.452051
 C           -0.966626           -0.592701           -0.498029
 C           -1.977183           -1.408732           -1.122456
 C           -3.394821           -1.192482           -0.745135
 C           -4.193402           -0.317759           -1.498563
 C           -5.527322           -0.114345           -1.148818
 C           -6.074010           -0.780156           -0.036790
 C           -7.456787           -0.552447            0.342183
 C           -8.155066           -0.482192            1.537589
 C           -7.778580           -0.622366            2.915066
 C           -8.735079           -0.486043            3.874538
 C          -10.115406           -0.209386            3.535967
 C          -10.517233           -0.063971            2.243170
 C           -9.542872           -0.186887            1.197237
 C           -9.605603           -0.096800           -0.184587
 C          -10.655600            0.137811           -1.160604
 C          -11.711919            1.015129           -0.859656
 C          -12.728817            1.222460           -1.794008
 C          -12.698457            0.562992           -3.027146
 C          -11.645222           -0.306558           -3.329936
 C          -10.622853           -0.519181           -2.403685
 O           -8.331906           -0.317677           -0.729045
 C           -5.274815           -1.661357            0.712452
 C           -3.940769           -1.864371            0.359236
 C           -1.638485           -2.370929           -2.058004
 C           -2.634023           -3.214234           -2.706408
 C           -2.277917           -4.146401           -3.622511
 C           -0.888714           -4.334102           -3.986275
 C            0.080100           -3.580391           -3.413479
 C           -0.244690           -2.563818           -2.422044
 C            0.734420           -1.794444           -1.835809
 C            0.409432           -0.794682           -0.864199
 C            1.409610           -0.011095           -0.266681
 C            1.100174            0.970298            0.687247
 C            4.267220            0.541617            1.578088
 C            5.596213            0.317935            1.222794
 C            8.650406            1.710131           -0.507015
 C            8.775792            3.117990           -0.753291
 C            9.987204            3.613903           -1.128414
 H           12.074754            3.223977           -1.596882
 H           11.927425            0.755391           -1.181446
 H           11.939066           -1.009422            0.387603
 H           13.007861           -3.253457            0.393710
 H           11.705427           -5.259760           -0.285750
 H            9.326899           -5.025339           -0.975728
 H            8.246322           -2.780040           -0.983610
 H            5.916697            2.701639           -1.210218
 H            3.547301            3.100999           -0.567772
 H            3.817307            3.417164            2.645015
 H            3.156539            5.132924            4.324810
 H            0.791362            5.472738            4.919583
 H           -0.996684            4.097872            3.849863
 H           -1.648929            2.320586            2.280429
 H           -2.318521            0.557822            0.734491
 H           -3.765958            0.202456           -2.356071
 H           -6.154078            0.561489           -1.733086
 H           -6.737750           -0.827658            3.154346
 H           -8.489189           -0.582534            4.931029
 H          -10.824233           -0.122168            4.357939
 H          -11.551561            0.134921            1.972149
 H          -11.730445            1.538185            0.095661
 H          -13.547155            1.902432           -1.561181
 H          -13.493603            0.727745           -3.752173
 H          -11.622739           -0.821408           -4.289463
 H           -9.797272           -1.193293           -2.634574
 H           -5.700935           -2.193143            1.563153
 H           -3.319398           -2.548173            0.937836
 H           -3.678688           -3.066978           -2.425931
 H           -3.019186           -4.778262           -4.109451
 H           -0.656808           -5.095677           -4.729092
 H            1.130229           -3.707323           -3.673932
 H            1.782621           -1.931847           -2.102320
 H            2.451044           -0.172036           -0.554055
 H            3.797641           -0.064365            2.353192
 H            6.174093           -0.467173            1.713513
 H            7.900144            3.750525           -0.627334
 H           10.123908            4.676726           -1.322096

