100

 C           12.404082           -2.627787           -0.303723
 C           11.543808           -3.703962           -0.759935
 C           10.229302           -3.494367           -1.000805
 C            9.641830           -2.169094           -0.806148
 N            8.345226           -2.000378           -1.054473
 C            7.780157           -0.737986           -0.873228
 C            6.408636           -0.574736           -1.143238
 C            5.801507            0.676887           -0.981271
 C            4.410393            0.905861           -1.247248
 C            3.864762            2.157394           -1.081298
 C            4.739875            3.239916           -0.622776
 N            6.033721            3.062914           -0.361660
 C            6.593120            1.798158           -0.532082
 C            7.963372            1.634752           -0.257230
 C            8.569459            0.384852           -0.422305
 C            9.962991            0.162732           -0.162839
 C           10.512161           -1.083356           -0.345363
 C           11.914507           -1.380750           -0.105678
 C            4.175603            4.575837           -0.444457
 C            2.868091            4.806072           -0.702294
 C            1.997235            3.743080           -1.155459
 C            2.463185            2.478180           -1.337288
 C            1.541095            1.411377           -1.801483
 C            1.400883            1.140691           -3.151510
 C            2.175361            1.834712           -4.172041
 C            2.012529            1.558587           -5.488116
 C            1.056568            0.560874           -5.922520
 C            0.309649           -0.116166           -5.017801
 C            0.444265            0.137371           -3.589502
 C           -0.316152           -0.541712           -2.664946
 C           -0.182112           -0.287479           -1.262192
 C           -0.959158           -0.979993           -0.319757
 C           -0.834657           -0.734059            1.056443
 C           -1.620023           -1.433630            2.041859
 C           -2.561559           -2.486290            1.584483
 C           -2.142676           -3.776859            1.490571
 C           -3.040075           -4.827910            1.061737
 C           -4.325984           -4.560379            0.739230
 C           -4.837905           -3.193938            0.814763
 N           -6.110150           -2.978905            0.485290
 C           -6.618085           -1.682964            0.550958
 C           -7.964493           -1.477764            0.197890
 C           -8.516639           -0.193342            0.247390
 C           -9.881982            0.073706           -0.103163
 C          -10.376700            1.353887           -0.039016
 C          -11.747071            1.698295           -0.379410
 C          -12.182474            2.978088           -0.298371
 C          -11.294665            4.043201            0.130567
 C          -10.007737            3.790226            0.461852
 C           -9.478684            2.428283            0.394360
 N           -8.207406            2.217669            0.727541
 C           -7.697197            0.920994            0.664269
 C           -6.350686            0.714651            1.018162
 C           -5.796736           -0.570588            0.967766
 C           -4.431294           -0.842186            1.314803
 C           -3.935677           -2.123357            1.247860
 C           -1.477315           -1.161884            3.391945
 C           -2.261696           -1.842860            4.413710
 C           -2.095911           -1.566071            5.729403
 C           -1.127360           -0.580064            6.162792
 C           -0.371861            0.085640            5.256776
 C           -0.509959           -0.168770            3.829182
 C            0.255513            0.502552            2.903273
 C            0.116699            0.248900            1.501279
 C            0.893536            0.941399            0.558858
 C            0.764429            0.700099           -0.817223
 H           13.453397           -2.862507           -0.127866
 H           11.997178           -4.685616           -0.900473
 H            9.558548           -4.284303           -1.344245
 H            5.828317           -1.437043           -1.481385
 H            3.797462            0.065288           -1.585657
 H            8.541876            2.496689            0.083469
 H           10.568518            1.003363            0.179245
 H           12.549027           -0.563454            0.236823
 H            4.856850            5.356718           -0.100956
 H            2.429256            5.796942           -0.577858
 H            0.952290            3.990543           -1.346950
 H            2.892626            2.586203           -3.836539
 H            2.591112            2.074190           -6.254097
 H            0.963149            0.379333           -6.992403
 H           -0.414951           -0.869138           -5.326452
 H           -1.042966           -1.288897           -2.985916
 H           -1.675804           -1.726705           -0.668709
 H           -1.117879           -4.055373            1.739464
 H           -2.640086           -5.841526            1.011985
 H           -5.027074           -5.332059            0.415725
 H           -8.566921           -2.334203           -0.113730
 H          -10.510130           -0.760360           -0.419312
 H          -12.402736            0.888871           -0.699794
 H          -13.207309            3.248246           -0.550924
 H          -11.704679            5.052545            0.175347
 H           -9.317428            4.570749            0.787859
 H           -5.747304            1.570692            1.331142
 H           -3.796835           -0.009313            1.632156
 H           -2.989414           -2.584877            4.079949
 H           -2.681950           -2.072378            6.495830
 H           -1.032059           -0.397401            7.232276
 H            0.362128            0.830277            5.563827
 H            0.989460            1.243523            3.222763
 H            1.613161            1.685029            0.908741

