100

 C            6.255752            5.703462           -0.832413
 C            4.929899            5.749668           -1.421818
 C            4.191331            4.626587           -1.571092
 C            4.719312            3.330889           -1.142945
 N            3.966909            2.247776           -1.310711
 C            4.461153            1.005222           -0.916625
 C            5.774344            0.874486           -0.329227
 C            6.554348            2.067630           -0.154965
 C            6.059102            3.285759           -0.549881
 C            6.793816            4.532775           -0.415289
 C            6.251363           -0.385359            0.042462
 C            5.456544           -1.529268           -0.154378
 N            5.984506           -2.763373            0.220542
 C            5.252843           -3.862363            0.040443
 C            5.815568           -5.154550            0.427242
 C            5.101451           -6.290743            0.254103
 C            3.765694           -6.258821           -0.310742
 C            3.194524           -5.088180           -0.683356
 C            3.906881           -3.830794           -0.532291
 C            3.381129           -2.615463           -0.903566
 C            4.139312           -1.410347           -0.732207
 C            3.652818           -0.141033           -1.107449
 C            2.299891           -0.011349           -1.704605
 C            2.138733            0.030216           -3.079028
 C            3.262399           -0.044417           -4.003751
 C            3.074895           -0.003584           -5.344894
 C            1.744232            0.119356           -5.902778
 C            0.662191            0.189652           -5.091249
 C            0.803533            0.144629           -3.642144
 C           -0.294386            0.203168           -2.814430
 C           -0.154016            0.155010           -1.390772
 C           -1.277304            0.194084           -0.548702
 C           -1.150091            0.129219            0.847282
 C           -2.289436            0.125763            1.731822
 C           -3.649548            0.172563            1.138372
 C           -4.281837           -1.019440            0.729553
 C           -3.663474           -2.307288            0.852141
 C           -4.331902           -3.443364            0.460750
 C           -3.764556           -4.776962            0.563447
 C           -4.476596           -5.865312            0.184425
 C           -5.822020           -5.730039           -0.340910
 C           -6.402787           -4.515232           -0.475285
 C           -5.684121           -3.305175           -0.080751
 N           -6.285529           -2.124530           -0.222890
 C           -5.611411           -0.969410            0.169929
 C           -6.269985            0.264105            0.015517
 C           -5.647069            1.448830            0.418360
 C           -6.285466            2.728742            0.291143
 C           -5.648475            3.868986            0.715215
 C           -6.233720            5.196298            0.624060
 C           -5.555076            6.284725            1.058739
 C           -4.224908            6.159905            1.626852
 C           -3.623961            4.953773            1.742143
 C           -4.306466            3.740939            1.290933
 N           -3.683979            2.573117            1.418195
 C           -4.322370            1.409311            0.992921
 C           -2.126845            0.067079            3.105828
 C           -3.253004            0.051383            4.030447
 C           -3.063613           -0.014931            5.370476
 C           -1.728191           -0.064964            5.928414
 C           -0.643971           -0.051476            5.117016
 C           -0.788194            0.009003            3.668934
 C            0.311025            0.004614            2.841211
 C            0.168108            0.055782            1.418274
 C            1.291790            0.027283            0.576695
 C            1.162666            0.057700           -0.819893
 H            6.797195            6.644508           -0.739408
 H            4.553776            6.722887           -1.738309
 H            3.189789            4.629510           -2.007846
 H            7.544352            1.978560            0.294522
 H            7.787180            4.484567            0.029922
 H            7.243743           -0.501051            0.484721
 H            6.821169           -5.147698            0.851869
 H            5.506900           -7.263741            0.533705
 H            3.244379           -7.208613           -0.422045
 H            2.190604           -5.048902           -1.106499
 H            2.378786           -2.543905           -1.336035
 H            4.262771           -0.125736           -3.576017
 H            3.911611           -0.058920           -6.039277
 H            1.649420            0.155310           -6.986750
 H           -0.346444            0.283508           -5.491340
 H           -1.298422            0.290203           -3.229687
 H           -2.269978            0.282859           -0.993957
 H           -2.651991           -2.362960            1.265296
 H           -2.751125           -4.862114            0.956228
 H           -4.065267           -6.870935            0.260422
 H           -6.346336           -6.643608           -0.623365
 H           -7.411204           -4.383574           -0.871775
 H           -7.273196            0.277580           -0.417010
 H           -7.283450            2.768943           -0.147341
 H           -7.232211            5.276385            0.195214
 H           -5.982840            7.284972            0.996437
 H           -3.730291            7.074470            1.955102
 H           -2.624114            4.827470            2.164588
 H           -4.256088            0.102804            3.604699
 H           -3.902551           -0.029353            6.064253
 H           -1.631205           -0.109751            7.011827
 H            0.368830           -0.084104            5.516395
 H            1.318107           -0.037024            3.256278
 H            2.286760           -0.014066            1.024130

