96

 C          -10.155801            0.587598           -2.055979
 C          -10.575350           -0.409089           -1.211855
 C           -9.696051           -0.914493           -0.203310
 C           -8.386944           -0.379644           -0.080641
 C           -7.966710            0.665058           -0.976553
 C           -8.847328            1.126485           -1.938080
 C           -6.605497            1.218024           -0.849433
 C           -6.159275            2.224878           -1.685684
 C           -4.848004            2.753984           -1.563530
 C           -3.991976            2.270164           -0.607174
 C           -4.411400            1.229428            0.279528
 C           -5.723907            0.698809            0.163887
 C           -6.149100           -0.344401            1.059473
 C           -5.271371           -0.811052            2.020740
 C           -3.961236           -0.285703            2.135927
 C           -3.529351            0.710970            1.288531
 C           -2.150030            1.238241            1.436052
 C           -1.888151            2.286371            2.301722
 C           -2.937576            2.949398            3.064678
 C           -2.653946            3.960442            3.920600
 C           -1.291670            4.418316            4.099380
 C           -0.276894            3.844971            3.409340
 C           -0.522544            2.752190            2.477776
 C            0.504510            2.156343            1.781755
 C            0.258384            1.078254            0.872328
 C            1.307201            0.471918            0.162044
 C            1.073887           -0.582823           -0.733719
 C            2.133784           -1.210058           -1.483573
 C            3.513995           -0.683957           -1.340097
 C            3.936169            0.327774           -2.174497
 C            5.250167            0.845665           -2.070566
 C            6.141888            0.355905           -1.133985
 C            7.508665            0.896606           -1.025591
 C            7.950469            1.912587           -1.853730
 C            9.267397            2.431094           -1.741518
 C           10.133369            1.929347           -0.803096
 C            9.716298            0.877008            0.071193
 C            8.400816            0.354714           -0.035582
 C            7.990091           -0.704169            0.847946
 C            8.886039           -1.191438            1.782268
 C           10.200678           -0.664533            1.884863
 C           10.611285            0.345334            1.052027
 C            6.622480           -1.244543            0.736941
 C            6.184542           -2.263454            1.562881
 C            4.867528           -2.781235            1.455632
 C            3.998067           -2.275813            0.522921
 C            4.408963           -1.223121           -0.353630
 C            5.726214           -0.701464           -0.250651
 C            1.870783           -2.256525           -2.351005
 C            2.918856           -2.916921           -3.118143
 C            2.634077           -3.925345           -3.976649
 C            1.271700           -4.383205           -4.154191
 C            0.257934           -3.812548           -3.460544
 C            0.505161           -2.722369           -2.526160
 C           -0.521098           -2.128330           -1.827567
 C           -0.273668           -1.051384           -0.917021
 C           -1.322440           -0.445584           -0.206488
 C           -1.089119            0.609861            0.688564
 C           -7.510058           -0.896306            0.936139
 C           -7.960090           -1.900758            1.773841
 C           -9.270845           -2.431056            1.646368
 C          -10.122274           -1.953496            0.682417
 H          -10.815525            0.981517           -2.828551
 H          -11.576401           -0.829198           -1.293553
 H           -8.552364            1.917609           -2.629360
 H           -6.810532            2.633981           -2.460055
 H           -4.537728            3.547988           -2.242291
 H           -2.981125            2.669811           -0.507078
 H           -5.571696           -1.598748            2.715004
 H           -3.298984           -0.683507            2.905983
 H           -3.962168            2.601120            2.920189
 H           -3.435127            4.456407            4.494863
 H           -1.118439            5.232308            4.801619
 H            0.753320            4.178021            3.530390
 H            1.532959            2.494333            1.913067
 H            2.328098            0.830205            0.313453
 H            3.263621            0.741945           -2.926747
 H            5.542687            1.644980           -2.754835
 H            7.292198            2.337911           -2.613142
 H            9.572552            3.232120           -2.414229
 H           11.145214            2.320014           -0.708467
 H            8.598831           -1.994565            2.462857
 H           10.872515           -1.078741            2.636135
 H           11.617034            0.756373            1.121992
 H            6.847043           -2.691185            2.317463
 H            4.563923           -3.584845            2.126055
 H            2.982922           -2.667013            0.434086
 H            3.943665           -2.568555           -2.974803
 H            3.414124           -4.419060           -4.554303
 H            1.097449           -5.194913           -4.858737
 H           -0.772427           -4.145319           -3.580585
 H           -1.549674           -2.466177           -1.957775
 H           -2.343206           -0.804325           -0.357500
 H           -7.313141           -2.307759            2.552837
 H           -9.582901           -3.222237            2.327508
 H          -11.129209           -2.353521            0.575787

