96

 C           10.295924            1.086829           -1.185240
 C            9.711663            0.828188           -2.399175
 C            8.372686            0.329441           -2.461677
 C            7.649476            0.103962           -1.261332
 C            8.281818            0.381746            0.001108
 C            9.578372            0.862344            0.019111
 C            7.530956            0.147902            1.248094
 C            8.094250            0.396330            2.486724
 C            7.365215            0.171158            3.684152
 C            6.077948           -0.299833            3.634482
 C            5.459295           -0.569081            2.373341
 C            6.182780           -0.348358            1.172370
 C            5.548691           -0.626081           -0.089631
 C            4.250499           -1.099343           -0.109918
 C            3.529909           -1.317858            1.099291
 C            2.137876           -1.827788            1.034975
 C            1.880376           -3.183172            1.145154
 C            2.941618           -4.170546            1.294089
 C            2.662860           -5.490781            1.414339
 C            1.293827           -5.963009            1.396461
 C            0.267100           -5.091292            1.252819
 C            0.507578           -3.660531            1.118092
 C           -0.530143           -2.767769            0.975225
 C           -0.289003           -1.361867            0.849845
 C           -1.349278           -0.452815            0.704261
 C           -1.120735            0.927206            0.588147
 C           -2.192874            1.879596            0.445189
 C           -3.590595            1.381246            0.448566
 C           -4.288234            1.272582            1.629578
 C           -5.637693            0.805955            1.625099
 C           -6.258230            0.452104            0.398691
 C           -7.619043           -0.014463            0.411216
 C           -8.293720           -0.107541            1.615027
 C           -7.667016            0.249234            2.838183
 C           -6.370117            0.695814            2.848735
 C           -8.264316           -0.382715           -0.862135
 C           -9.569476           -0.837821           -0.904227
 C          -10.185370           -1.191202           -2.133619
 C           -9.491781           -1.086076           -3.312549
 C           -8.140037           -0.618833           -3.312799
 C           -7.518190           -0.264901           -2.086900
 C           -6.157481            0.203359           -2.099244
 C           -5.485299            0.300467           -3.303693
 C           -6.112913           -0.054866           -4.526770
 C           -7.408839           -0.504643           -4.536653
 C           -5.510448            0.570128           -0.825630
 C           -4.206104            1.024776           -0.785658
 C           -1.933590            3.234128            0.325738
 C           -2.993860            4.221754            0.171597
 C           -2.714908            5.543293            0.067215
 C           -1.346671            6.016808            0.105550
 C           -0.320367            5.143521            0.242375
 C           -0.560968            3.711246            0.357592
 C            0.475796            2.817297            0.500014
 C            0.233568            1.411047            0.616246
 C            1.293814            0.501716            0.759861
 C            1.065181           -0.877720            0.878974
 C            4.119279           -1.058559            2.315454
 C            6.302326           -0.396490           -1.336467
 C            5.741997           -0.650396           -2.574752
 C            6.470768           -0.423417           -3.772083
 C            7.755226            0.055771           -3.722338
 H           11.314988            1.467250           -1.123679
 H           10.252653            0.996868           -3.328888
 H           10.078028            1.079909            0.964554
 H            9.115374            0.772269            2.567910
 H            7.848470            0.379939            4.638352
 H            5.507267           -0.476354            4.545050
 H            3.746135           -1.317926           -1.053720
 H            3.970872           -3.806420            1.303713
 H            3.452759           -6.232139            1.526085
 H            1.125601           -7.033848            1.501132
 H           -0.768666           -5.428855            1.234714
 H           -1.563441           -3.115408            0.956831
 H           -2.373453           -0.832573            0.681852
 H           -3.822870            1.541959            2.577586
 H           -9.326420           -0.458209            1.648083
 H           -8.236425            0.161392            3.763153
 H           -5.877652            0.973230            3.779646
 H          -10.154775           -0.934937            0.011606
 H          -11.215412           -1.545809           -2.119526
 H           -9.954442           -1.354354           -4.260869
 H           -4.453208            0.654500           -3.337644
 H           -5.544940            0.037401           -5.452018
 H           -7.899685           -0.780408           -5.468568
 H           -3.616498            1.123350           -1.699788
 H           -4.022423            3.856690            0.142403
 H           -3.504314            6.284605           -0.048448
 H           -1.178651            7.089404            0.020779
 H            0.715143            5.481294            0.271807
 H            1.508960            3.164834            0.529042
 H            2.318006            0.881882            0.779503
 H            3.573368           -1.222363            3.244376
 H            4.722569           -1.032150           -2.656331
 H            5.989058           -0.636833           -4.725751
 H            8.322651            0.234729           -4.634236

