102

 C            3.566580           -2.785713           -5.555779
 C            4.912550           -2.310372           -5.814438
 C            5.659141           -1.753224           -4.833170
 C            5.121184           -1.619322           -3.480420
 N            5.884024           -1.068746           -2.537267
 C            5.378059           -0.942817           -1.243433
 C            6.198505           -0.366723           -0.260585
 C            5.739412           -0.222035            1.056259
 C            6.570576            0.360219            2.068317
 C            6.128106            0.501630            3.364068
 C            6.961082            1.088434            4.404946
 C            6.504041            1.217240            5.673814
 C            5.170985            0.774540            6.030276
 C            4.354561            0.222112            5.100952
 C            4.791349            0.056584            3.721722
 C            3.977338           -0.505061            2.763867
 C            4.415527           -0.666034            1.409242
 C            3.591296           -1.248570            0.421130
 C            2.231355           -1.728830            0.776204
 C            2.037632           -3.050182            1.171756
 C            3.132023           -4.001699            1.269590
 C            2.914430           -5.285677            1.650609
 C            1.582080           -5.744088            1.971487
 C            0.526353           -4.894989            1.900385
 C            0.706160           -3.509713            1.499494
 C           -0.366074           -2.637627            1.420006
 C           -0.185438           -1.289146            1.009341
 C           -1.291363           -0.408267            0.884732
 C           -1.142580            0.891335            0.417770
 C           -2.275101            1.800472            0.207443
 C           -3.557068            1.323885           -0.319735
 C           -3.781856           -0.041069           -0.709847
 C           -2.782203           -0.853770           -1.317399
 C           -3.000342           -2.189604           -1.604646
 C           -1.976171           -3.018060           -2.217493
 C           -2.196296           -4.335381           -2.455440
 C           -3.461675           -4.945609           -2.109246
 C           -4.457537           -4.210676           -1.553918
 C           -4.279713           -2.791182           -1.295128
 C           -5.298950           -1.996534           -0.808632
 C           -5.102961           -0.600774           -0.584628
 C           -6.194601            0.241021           -0.303067
 C           -6.013391            1.626091           -0.381453
 N           -7.147485            2.438616           -0.369331
 C           -7.016842            3.734666           -0.644143
 C           -8.207391            4.582018           -0.655407
 C           -8.118217            5.877166           -1.037349
 C           -6.849161            6.457492           -1.433529
 C           -5.710274            5.723078           -1.412407
 C           -5.729303            4.334631           -0.989754
 C           -4.600416            3.549843           -0.910659
 C           -4.679447            2.180501           -0.503756
 C           -2.025335            3.122440            0.590098
 C           -3.010942            4.009176            1.188731
 C           -2.753548            5.321769            1.407867
 C           -1.480294            5.898323            1.026775
 C           -0.485463            5.101555            0.571714
 C           -0.673902            3.660818            0.441492
 C            0.378260            2.828714            0.158910
 C            0.201592            1.404144            0.267755
 C            1.293324            0.547780            0.356384
 C            1.130688           -0.818490            0.694900
 C            4.048807           -1.392581           -0.903917
 C            3.258337           -1.975548           -1.947490
 C            3.763424           -2.099178           -3.220524
 C            3.017898           -2.684700           -4.321184
 H            3.018990           -3.223525           -6.389025
 H            5.298237           -2.419244           -6.828481
 H            6.673772           -1.386384           -4.998992
 H            7.201535           -0.035723           -0.538581
 H            7.570145            0.689292            1.783839
 H            7.960371            1.416839            4.121830
 H            7.118526            1.654053            6.460203
 H            4.855115            0.902577            7.064447
 H            3.349104           -0.115115            5.352493
 H            2.970808           -0.842642            3.023807
 H            4.136117           -3.646946            1.028320
 H            3.731687           -6.002133            1.725522
 H            1.459087           -6.784362            2.269345
 H           -0.485257           -5.222801            2.138157
 H           -1.373873           -2.980967            1.659288
 H           -2.278781           -0.779643            1.173827
 H           -1.832578           -0.391505           -1.600704
 H           -1.028318           -2.542899           -2.468236
 H           -1.435200           -4.968280           -2.908245
 H           -3.583663           -6.008760           -2.311912
 H           -5.416028           -4.654868           -1.289251
 H           -6.288554           -2.414736           -0.625493
 H           -7.184451           -0.166901           -0.098632
 H           -9.147787            4.116423           -0.355687
 H           -8.996471            6.522647           -1.061068
 H           -6.849206            7.500247           -1.746303
 H           -4.749309            6.147396           -1.702860
 H           -3.627455            3.950945           -1.211942
 H           -3.951121            3.559047            1.520074
 H           -3.482883            5.971456            1.890745
 H           -1.350574            6.972970            1.143287
 H            0.495715            5.500799            0.315411
 H            1.366949            3.216105           -0.083696
 H            2.302327            0.939368            0.206117
 H            2.249168           -2.320078           -1.707388
 H            2.008019           -3.037055           -4.113074

