102

 C            5.491948            7.810943           -1.965063
 C            4.341636            7.813542           -1.080326
 C            3.846963            6.661350           -0.572759
 C            4.464206            5.378025           -0.907113
 N            3.949951            4.264902           -0.388778
 C            4.532125            3.038217           -0.708011
 C            3.979538            1.866829           -0.160675
 C            4.533757            0.612728           -0.457225
 C            3.986317           -0.596065            0.086223
 C            4.530960           -1.826320           -0.205227
 C            5.687305           -1.910116           -1.083979
 C            6.229023           -0.762419           -1.617984
 C            5.677602            0.526421           -1.327331
 C            6.227482            1.697770           -1.873075
 C            5.678030            2.952668           -1.582447
 C            6.204917            4.172735           -2.119380
 C            5.624294            5.377500           -1.801957
 C            6.103025            6.652225           -2.309468
 C            6.247502           -3.220425           -1.381415
 C            5.706831           -4.345452           -0.856114
 C            4.557868           -4.273203            0.018408
 C            3.993523           -3.076546            0.334679
 C            2.818354           -3.030662            1.240512
 C            2.991106           -2.954557            2.611825
 C            4.307329           -2.856835            3.228876
 C            4.451494           -2.801836            4.574631
 C            3.294237           -2.835509            5.444860
 C            2.045540           -2.916094            4.926530
 C            1.830786           -2.976595            3.487020
 C            0.565435           -3.062646            2.953006
 C            0.359905           -3.125549            1.537586
 C           -0.932079           -3.214366            0.995344
 C           -1.142167           -3.279792           -0.390607
 C           -2.458172           -3.388156           -0.968490
 C           -3.626326           -3.492348           -0.058417
 C           -4.058806           -4.714350            0.353712
 C           -5.201725           -4.841425            1.230036
 C           -5.868640           -3.744209            1.660754
 C           -5.452343           -2.408397            1.258712
 C           -6.123101           -1.287692            1.694642
 C           -5.712498            0.026241            1.300983
 C           -6.395283            1.170639            1.744187
 C           -5.982582            2.450462            1.352817
 C           -6.648645            3.645022            1.781592
 C           -6.198976            4.876252            1.367589
 C           -6.822983            6.127857            1.762308
 C           -6.336951            7.314458            1.325835
 C           -5.180167            7.371058            0.451452
 C           -4.554183            6.242561            0.045898
 C           -5.031976            4.931142            0.483508
 N           -4.390694            3.842659            0.063843
 C           -4.839886            2.589882            0.481128
 C           -4.154676            1.445679            0.035855
 C           -4.573091            0.166821            0.432117
 C           -3.890590           -1.014478           -0.009113
 C           -4.302064           -2.269421            0.379083
 C           -2.633085           -3.424174           -2.341270
 C           -3.949893           -3.511352           -2.958438
 C           -4.094510           -3.561290           -4.304357
 C           -2.937688           -3.525814           -5.174973
 C           -1.689366           -3.436345           -4.656968
 C           -1.474290           -3.378860           -3.217418
 C           -0.208899           -3.292022           -2.683246
 C           -0.002887           -3.238766           -1.267584
 C            1.289338           -3.152083           -0.725090
 C            1.500239           -3.102216            0.661263
 H            5.840920            8.772687           -2.339048
 H            3.892435            8.777911           -0.841775
 H            2.982612            6.631928            0.093983
 H            3.110803            1.948699            0.497638
 H            3.115990           -0.515103            0.743209
 H            7.094058           -0.814811           -2.278422
 H            7.092432            1.628019           -2.532232
 H            7.070118            4.119975           -2.780721
 H            6.966743            6.635320           -2.973506
 H            7.114076           -3.257310           -2.040280
 H            6.115857           -5.331954           -1.072011
 H            4.160598           -5.207613            0.415890
 H            5.172733           -2.825001            2.564376
 H            5.433594           -2.728424            5.039488
 H            3.466288           -2.791169            6.519057
 H            1.163140           -2.938291            5.564987
 H           -0.311331           -3.085928            3.600800
 H           -1.790676           -3.230537            1.670598
 H           -3.558330           -5.628484            0.033175
 H           -5.502533           -5.846283            1.524854
 H           -6.733627           -3.823210            2.317970
 H           -6.985801           -1.381162            2.353587
 H           -7.257333            1.060278            2.401592
 H           -7.513560            3.551822            2.438830
 H           -7.690810            6.070672            2.418677
 H           -6.795489            8.259345            1.614884
 H           -4.836091            8.356077            0.135161
 H           -3.682006            6.253599           -0.611137
 H           -3.291007            1.568486           -0.622756
 H           -3.026538           -0.891717           -0.667923
 H           -4.816194           -3.530508           -2.294598
 H           -5.077200           -3.626357           -4.769140
 H           -3.109806           -3.570583           -6.249103
 H           -0.807743           -3.404165           -5.296059
 H            0.667359           -3.262738           -3.331481
 H            2.146873           -3.120873           -1.401180

