92

 C           -6.550617           -0.520690            5.386055
 C           -5.635970            0.053745            4.585872
 C           -5.565812           -0.528540            3.241793
 C           -4.751837           -0.174491            2.205210
 C           -4.843187           -0.881701            0.950227
 C           -4.020861           -0.536725           -0.132951
 C           -4.102422           -1.213455           -1.358793
 C           -5.049036           -2.286665           -1.500608
 C           -5.871853           -2.633972           -0.419199
 C           -5.789910           -1.953003            0.803424
 C           -6.641125           -2.307907            1.916987
 C           -6.516678           -1.613171            3.073843
 S           -7.415586           -1.831138            4.570183
 C           -5.146947           -2.996731           -2.755350
 C           -4.334477           -2.625796           -3.773562
 S           -4.251357           -3.312269           -5.390973
 C           -2.974404           -2.195785           -5.895475
 C           -2.625549           -1.353258           -4.908464
 C           -3.371726           -1.547473           -3.660844
 C           -3.257160           -0.853594           -2.483072
 C           -2.285352            0.259902           -2.357111
 C           -2.647163            1.549015           -2.710028
 C           -3.989076            1.887488           -3.165265
 C           -4.313991            3.154195           -3.518670
 C           -3.330255            4.215405           -3.457479
 C           -2.069331            3.960677           -3.033522
 C           -1.666034            2.619059           -2.634324
 C           -0.385961            2.352235           -2.205237
 C            0.010275            1.029513           -1.827096
 C            1.322231            0.757304           -1.407060
 C            1.720229           -0.536776           -1.038452
 C            3.068340           -0.844345           -0.629447
 C            4.081994            0.238114           -0.659469
 C            4.820992            0.466922           -1.792298
 C            4.760767           -0.238503           -3.076703
 C            5.623458            0.221410           -3.998581
 S            6.594448            1.566420           -3.382090
 C            5.814989            1.522392           -1.805763
 C            6.060640            2.316102           -0.736054
 C            5.296419            2.102263            0.471593
 C            4.303193            1.063220            0.514458
 C            3.570283            0.871616            1.694991
 C            3.788733            1.667224            2.829813
 C            3.030012            1.457343            4.039758
 C            3.264252            2.244261            5.129889
 C            2.613673            2.199237            6.443426
 C            3.070922            3.115541            7.314211
 S            4.343808            4.122701            6.609528
 C            4.273986            3.285962            5.063753
 C            5.012050            3.523264            3.952321
 C            4.783649            2.703470            2.783460
 C            5.515963            2.899695            1.604383
 C            3.422331           -2.127139           -0.247000
 C            4.769153           -2.468691            0.191199
 C            5.093938           -3.735071            0.546025
 C            4.107224           -4.793979            0.496660
 C            2.837119           -4.532838            0.105308
 C            2.429683           -3.188618           -0.280690
 C            1.141935           -2.916722           -0.682840
 C            0.748897           -1.597047           -1.074719
 C           -0.561168           -1.326240           -1.501624
 C           -0.953466           -0.036424           -1.890806
 H           -6.800732           -0.284627            6.407707
 H           -4.985204            0.875606            4.858990
 H           -4.028573            0.634632            2.296718
 H           -3.301012            0.278445           -0.017724
 H           -6.589040           -3.447449           -0.533306
 H           -7.355636           -3.120014            1.794372
 H           -5.869855           -3.805744           -2.846120
 H           -2.586147           -2.262641           -6.898576
 H           -1.867125           -0.579313           -4.971725
 H           -4.724947            1.082171           -3.208727
 H           -5.317429            3.411107           -3.855959
 H           -3.640693            5.213569           -3.762743
 H           -1.316339            4.746373           -2.980886
 H            0.357514            3.148227           -2.147010
 H            2.047473            1.573890           -1.370497
 H            4.058884           -1.054919           -3.214359
 H            5.779611           -0.117352           -5.009633
 H            6.809990            3.105844           -0.750752
 H            2.811909            0.084735            1.733053
 H            2.281049            0.666907            4.055419
 H            1.838057            1.469967            6.643318
 H            2.766358            3.293267            8.332894
 H            5.768442            4.304939            3.906272
 H            6.271433            3.685259            1.566363
 H            5.507306           -1.664961            0.225522
 H            6.099068           -3.993024            0.877534
 H            4.423251           -5.796232            0.782366
 H            2.081750           -5.316760            0.062202
 H            0.391205           -3.707343           -0.713616
 H           -1.287949           -2.141596           -1.532647

