92

 C           14.918237            1.641561            0.295580
 C           13.866385            2.321691           -0.192340
 C           12.618708            1.551686           -0.225634
 C           11.387175            1.949646           -0.658596
 C           10.277385            1.027962           -0.604790
 C            8.999319            1.408533           -1.041339
 C            7.916846            0.518115           -0.989044
 C            8.122516           -0.810281           -0.479078
 C            9.399217           -1.192871           -0.044444
 C           10.480465           -0.301140           -0.096256
 C           11.795456           -0.697700            0.354654
 C           12.803926            0.204713            0.284352
 S           14.483310           -0.008921            0.761175
 C            7.008925           -1.730986           -0.422511
 C            5.796343           -1.309941           -0.855735
 S            4.291593           -2.220302           -0.898144
 C            3.391438           -0.851766           -1.599626
 C            1.977270           -1.056520           -1.888645
 C            1.576910           -1.543711           -3.124186
 C            2.523824           -1.873670           -4.180703
 C            2.105052           -2.353025           -5.376757
 C            0.695786           -2.549704           -5.644386
 C           -0.229835           -2.255971           -4.700285
 C            0.162806           -1.738381           -3.396529
 C           -0.774102           -1.434767           -2.435158
 C           -0.386871           -0.926391           -1.154101
 C           -1.348657           -0.609844           -0.181134
 C           -0.980702           -0.121349            1.081752
 C           -1.949185            0.215356            2.097612
 C           -3.365565            0.050544            1.793900
 C           -4.257055            0.911662            1.267214
 C           -5.607898            0.364043            1.131960
 C           -6.724653            0.978812            0.644691
 C           -7.975883            0.259862            0.598342
 C           -8.033789           -1.097915            1.067469
 C           -9.250288           -1.792925            1.021316
 C          -10.413172           -1.187532            0.523291
 C          -11.665762           -1.907434            0.475005
 C          -12.758052           -1.274977           -0.018021
 S          -14.389747           -1.907994           -0.191089
 C          -14.998255           -0.396926           -0.881138
 C          -14.035828            0.536505           -0.979042
 C          -12.722343            0.094742           -0.498902
 C          -11.552139            0.796160           -0.462653
 C          -10.357986            0.169577            0.052714
 C           -9.139926            0.864550            0.101572
 C           -6.835903           -1.725547            1.579606
 C           -5.686575           -1.008675            1.601115
 S           -4.104427           -1.527050            2.169291
 C           -1.547837            0.687380            3.338864
 C           -2.495832            1.038483            4.387516
 C           -2.075467            1.492069            5.593184
 C           -0.663948            1.645724            5.876715
 C            0.262110            1.338081            4.937480
 C           -0.131914            0.846063            3.624450
 C            0.805081            0.535358            2.665331
 C            0.416465            0.051679            1.375412
 C            1.377639           -0.254172            0.398256
 C            1.009587           -0.739097           -0.865700
 C            4.177088            0.226873           -1.782774
 C            5.569049            0.027325           -1.375928
 C            6.603699            0.915007           -1.439320
 H           15.936185            1.971600            0.426055
 H           13.884959            3.346436           -0.542561
 H           11.215295            2.951808           -1.046962
 H            8.845035            2.415977           -1.428717
 H            9.554568           -2.201282            0.340326
 H           11.936665           -1.707308            0.736931
 H            7.177329           -2.734334           -0.034151
 H            3.585449           -1.724779           -3.974906
 H            2.810949           -2.603985           -6.167604
 H            0.414231           -2.938832           -6.621622
 H           -1.294718           -2.397098           -4.882100
 H           -1.837834           -1.578897           -2.630762
 H           -2.405405           -0.753189           -0.418307
 H           -4.037272            1.927275            0.960338
 H           -6.699595            2.006601            0.286911
 H           -9.293371           -2.822258            1.378702
 H          -11.694715           -2.934636            0.834774
 H          -16.037426           -0.329474           -1.159882
 H          -14.165807            1.538400           -1.369381
 H          -11.492006            1.824205           -0.815048
 H           -9.097810            1.894407           -0.254007
 H           -6.892642           -2.754259            1.932258
 H           -3.559036            0.920373            4.170521
 H           -2.782024            1.752247            6.380470
 H           -0.381000            2.012542            6.862188
 H            1.328761            1.446413            5.131391
 H            1.870397            0.650009            2.871828
 H            2.434495           -0.112363            0.636116
 H            3.849892            1.174310           -2.193969
 H            6.466741            1.923714           -1.824966

