86

 C            3.807266           -0.549149            4.454227
 C            2.557737           -0.229428            4.051112
 C            2.350453            0.709606            2.955327
 C            0.955415            1.026565            2.565414
 C            0.295664            2.102364            3.133514
 C            0.911124            2.948840            4.147386
 C            0.250605            4.006444            4.677003
 C           -1.095762            4.326991            4.250157
 C           -1.720266            3.569678            3.316772
 C           -1.058957            2.420357            2.713689
 C           -1.684711            1.649147            1.761163
 C           -1.027034            0.524710            1.167010
 C           -1.665448           -0.259066            0.193088
 C           -1.023331           -1.356986           -0.400251
 C           -1.653897           -2.164106           -1.413730
 C           -3.019637           -1.799144           -1.861171
 C           -3.217430           -0.958179           -2.906656
 C           -4.561317           -0.612516           -3.351744
 C           -4.774985            0.228534           -4.408643
 C           -6.108889            0.563521           -4.852676
 C           -6.313767            1.412663           -5.925910
 C           -7.632609            1.727439           -6.346425
 C           -8.031880            2.553213           -7.395993
 S           -9.719924            2.597094           -7.481293
 C           -9.988126            1.557334           -6.174660
 C           -8.769359            1.147632           -5.636094
 C           -8.535397            0.278046           -4.537546
 C           -7.241408           -0.016265           -4.144199
 C           -6.974594           -0.900059           -3.030589
 C           -5.698305           -1.196058           -2.638777
 C           -5.417895           -2.089730           -1.517997
 C           -4.150971           -2.377790           -1.146487
 C           -0.999756           -3.248462           -1.972149
 C           -1.613637           -4.090904           -2.990058
 C           -0.947097           -5.137741           -3.533354
 C            0.402500           -5.453529           -3.113274
 C            1.019919           -4.709140           -2.164669
 C            0.351446           -3.572289           -1.546060
 C            0.973884           -2.807401           -0.585904
 C            0.314102           -1.686996            0.013336
 C            0.951539           -0.904753            0.989657
 C            0.313824            0.200303            1.574172
 C            3.405819            1.276079            2.319105
 C            4.775311            0.969387            2.711736
 C            5.848476            1.537135            2.082385
 C            7.205510            1.233553            2.476271
 C            8.284374            1.814785            1.833546
 C            9.609308            1.501620            2.235908
 C           10.808565            1.982672            1.713129
 S           12.112247            1.298219            2.544317
 C           11.176319            0.364372            3.598994
 C            9.822218            0.560829            3.332532
 C            8.699892           -0.023379            3.978112
 C            7.416347            0.296316            3.570757
 C            6.255969           -0.283017            4.211249
 C            4.985502            0.028581            3.812793
 H            3.977615           -1.248739            5.272550
 H            1.671259           -0.654117            4.522245
 H            1.924880            2.697874            4.465494
 H            0.708380            4.641589            5.434104
 H           -1.581160            5.189785            4.703705
 H           -2.733300            3.794061            2.985163
 H           -2.698870            1.882620            1.436145
 H           -2.684166           -0.005074           -0.108473
 H           -2.378909           -0.517812           -3.447088
 H           -3.938352            0.671540           -4.949443
 H           -5.474437            1.850845           -6.462967
 H           -7.385756            3.092237           -8.065617
 H          -10.966943            1.272408           -5.833159
 H           -9.391294           -0.148064           -4.017291
 H           -7.832620           -1.326118           -2.510654
 H           -6.273413           -2.516015           -0.994118
 H           -3.929895           -3.043819           -0.312371
 H           -2.632279           -3.847467           -3.298317
 H           -1.402777           -5.768305           -4.295387
 H            0.895674           -6.302851           -3.583474
 H            2.033580           -4.933045           -1.834676
 H            1.989088           -3.039597           -0.263265
 H            1.967017           -1.164117            1.297465
 H            3.262529            1.978008            1.497027
 H            5.708035            2.239279            1.260255
 H            8.137997            2.516464            1.014350
 H           10.917110            2.682827            0.904190
 H           11.593501           -0.277274            4.354099
 H            8.872332           -0.722722            4.794216
 H            6.430227           -0.982044            5.029243

