86

 C            5.584865            4.836920            1.315592
 C            6.210432            3.640934            1.402477
 C            5.618848            2.435721            0.828264
 C            6.232905            1.216536            0.904366
 C            5.638553            0.028230            0.333187
 C            6.277859           -1.195776            0.415785
 C            5.682738           -2.353757           -0.149896
 C            6.172177           -3.658028           -0.167421
 S            5.080317           -4.672849           -0.968980
 C            3.949237           -3.465970           -1.317857
 C            4.391658           -2.241886           -0.820161
 C            3.749417           -0.968887           -0.901740
 C            2.449516           -0.888408           -1.612357
 C            2.412585           -0.717377           -2.985943
 C            3.621764           -0.585760           -3.787847
 C            3.561679           -0.430918           -5.132217
 C            2.285597           -0.389972           -5.815651
 C            1.128394           -0.500451           -5.120338
 C            1.133116           -0.666004           -3.673107
 C           -0.038526           -0.773588           -2.959357
 C           -0.028126           -0.940520           -1.537865
 C           -1.224882           -1.038431           -0.810241
 C           -1.223183           -1.205760            0.582657
 C           -2.440823           -1.295992            1.349682
 C           -3.739158           -1.216253            0.636136
 C           -4.353371           -0.000280            0.357899
 C           -3.755196            1.258396            0.741671
 C           -4.357173            2.455478            0.470159
 C           -3.753476            3.726995            0.857674
 C           -4.359848            4.902966            0.578401
 C           -5.634584            4.934161           -0.117731
 C           -6.243957            3.788873           -0.499729
 C           -5.642431            2.486219           -0.227808
 C           -6.240338            1.315891           -0.604182
 C           -5.634735            0.030534           -0.333594
 C           -6.256518           -1.143235           -0.719511
 C           -5.648957           -2.397623           -0.449198
 C           -6.120073           -3.671900           -0.757059
 S           -5.018715           -4.839499           -0.219279
 C           -3.906805           -3.741298            0.425859
 C           -4.363467           -2.438179            0.239882
 C           -2.404545           -1.468660            2.722923
 C           -3.614528           -1.557017            3.529518
 C           -3.554823           -1.736990            4.870764
 C           -2.278474           -1.846241            5.546389
 C           -1.120768           -1.764848            4.847884
 C           -1.124826           -1.568962            3.404457
 C            0.047202           -1.479499            2.688813
 C            0.037527           -1.291198            1.269925
 C            1.234222           -1.188786            0.542792
 C            1.232531           -1.008042           -0.848519
 C            4.350976            0.150097           -0.336269
 C            3.734189            1.455875           -0.395393
 C            4.326014            2.558701            0.155000
 C            3.703955            3.878027            0.094922
 C            4.301551            4.958834            0.645688
 H            6.017443            5.741211            1.741335
 H            7.172756            3.534465            1.901249
 H            7.196095            1.105048            1.401424
 H            7.242208           -1.292700            0.910658
 H            7.099967           -3.998784            0.255103
 H            3.027072           -3.640048           -1.849224
 H            4.579127           -0.616874           -3.263184
 H            4.463251           -0.332466           -5.734810
 H            2.293018           -0.266880           -6.897461
 H            0.159151           -0.469263           -5.616440
 H           -1.003207           -0.733858           -3.465654
 H           -2.177589           -0.981820           -1.342494
 H           -2.794729            1.222022            1.261814
 H           -2.797429            3.685006            1.379538
 H           -3.918195            5.856390            0.862823
 H           -6.074342            5.910326           -0.317188
 H           -7.199924            3.796853           -1.021404
 H           -7.198338            1.318380           -1.123207
 H           -7.216019           -1.127427           -1.232619
 H           -7.040407           -3.909758           -1.258800
 H           -2.985482           -4.029524            0.906738
 H           -4.571966           -1.472733            3.010973
 H           -4.457048           -1.803613            5.476759
 H           -2.286271           -1.993181            6.625190
 H           -0.151421           -1.842323            5.338804
 H            1.011889           -1.551082            3.191688
 H            2.187069           -1.250506            1.074289
 H            2.767968            1.534405           -0.899906
 H            2.741527            3.951416           -0.411472
 H            3.846207            5.946773            0.606363

