56

 C           -5.672482           -1.565213           -2.035516
 C           -5.161819           -0.346746           -2.494774
 C           -4.219573            0.350920           -1.734581
 C           -3.786268           -0.173734           -0.507487
 C           -2.794110            0.568546            0.308582
 C           -3.209234            1.520218            1.223774
 C           -4.615209            1.840275            1.432465
 C           -4.998183            2.775309            2.334641
 C           -4.015462            3.489437            3.122947
 C           -2.693997            3.232990            2.971555
 C           -2.224977            2.237087            2.017605
 C           -0.884528            1.968335            1.860941
 C           -0.429317            0.987235            0.923032
 C            0.938555            0.710972            0.768728
 C            1.393511           -0.250201           -0.146906
 C            2.792041           -0.554784           -0.316995
 C            3.785633            0.172339            0.510921
 C            4.149959           -0.329055            1.769838
 C            5.097643            0.349383            2.540489
 C            5.681774            1.526163            2.060433
 C            5.316380            2.027185            0.806661
 C            4.369440            1.354359            0.030365
 C            3.206045           -1.508215           -1.231207
 C            4.610492           -1.842939           -1.427163
 C            4.992131           -2.780317           -2.327419
 C            4.009693           -3.481654           -3.127302
 C            2.689894           -3.211983           -2.987721
 C            2.222255           -2.214820           -2.034206
 C            0.882640           -1.938036           -1.884382
 C            0.428663           -0.958464           -0.944554
 C           -0.939237           -0.682211           -0.790283
 C           -1.394350            0.274602            0.129477
 C           -4.296468           -1.397497           -0.047895
 C           -5.238755           -2.089050           -0.813204
 H           -6.406775           -2.105846           -2.629182
 H           -5.499335            0.061080           -3.446634
 H           -3.820238            1.300460           -2.088861
 H           -5.348632            1.296920            0.833924
 H           -6.047354            3.017557            2.494679
 H           -4.377541            4.230934            3.833044
 H           -1.940649            3.760019            3.555535
 H           -0.138027            2.499403            2.451454
 H            1.661642            1.258366            1.377581
 H            3.693921           -1.246529            2.139805
 H            5.382613           -0.041465            3.516370
 H            6.420467            2.051742            2.662277
 H            5.771614            2.943233            0.432518
 H            4.083295            1.741057           -0.946966
 H            5.344003           -1.309295           -0.819854
 H            6.040052           -3.034295           -2.477021
 H            4.370719           -4.225045           -3.836070
 H            1.936388           -3.729021           -3.580327
 H            0.136086           -2.462174           -2.480820
 H           -1.661901           -1.227220           -1.401624
 H           -3.956557           -1.802192            0.904673
 H           -5.636572           -3.037727           -0.455362

