84

 C           -7.641703            2.638860           -0.209008
 C           -8.167069            1.890922            0.847073
 C           -7.481276            0.763469            1.326885
 C           -6.246643            0.390732            0.727206
 C           -5.721133            1.159694           -0.347242
 C           -6.430597            2.281795           -0.805246
 C           -4.464170            0.752766           -0.944374
 C           -3.786029           -0.339729           -0.502219
 C           -2.514234           -0.729359           -1.162348
 C           -2.530978           -1.542737           -2.282430
 C           -3.763985           -2.096090           -2.826758
 C           -3.757562           -2.873094           -3.936379
 C           -2.516584           -3.180493           -4.616604
 C           -1.338679           -2.702231           -4.148932
 C           -1.285414           -1.864346           -2.958510
 C           -0.093086           -1.372563           -2.477963
 C           -0.047324           -0.546528           -1.309476
 C            1.170346           -0.050237           -0.816956
 C            1.222632            0.763628            0.324971
 C            2.460528            1.292684            0.840346
 C            3.717992            1.008280            0.103591
 C            4.139563            1.865976           -0.863543
 C            5.367727            1.636774           -1.599285
 C            5.810750            2.521094           -2.596298
 C            7.000626            2.268117           -3.281799
 C            7.767758            1.137919           -2.990165
 C            7.351490            0.235530           -1.998236
 C            6.140994            0.483273           -1.293724
 C            5.696530           -0.432907           -0.268872
 C            6.475096           -1.585138            0.033159
 C            6.037337           -2.470711            1.030736
 C            4.848593           -2.222115            1.719341
 C            4.077793           -1.094084            1.430255
 C            4.486625           -0.187648            0.439336
 C            7.706588           -1.811533           -0.705080
 C            8.121270           -0.951512           -1.665660
 C            2.481346            2.074583            1.982444
 C            3.717064            2.607181            2.541347
 C            3.710470            3.384647            3.650690
 C            2.467120            3.708529            4.318997
 C            1.288883            3.233649            3.849020
 C            1.236089            2.392085            2.661202
 C            0.042806            1.908243            2.175322
 C           -0.003349            1.083568            1.005886
 C           -1.220952            0.587338            0.513439
 C           -1.274236           -0.218629           -0.634051
 C           -4.294490           -1.147187            0.603653
 C           -3.616486           -2.277244            1.087332
 C           -4.144659           -3.021199            2.144563
 C           -5.354146           -2.657684            2.739627
 C           -6.058395           -1.533263            2.280562
 C           -5.527528           -0.767771            1.204817
 C           -7.321654           -1.126298            2.873427
 C           -7.995093           -0.041151            2.422646
 H           -8.183837            3.511519           -0.573086
 H           -9.113016            2.182884            1.299925
 H           -6.034641            2.874255           -1.628807
 H           -4.078751            1.353352           -1.769985
 H           -4.694555           -1.864528           -2.304595
 H           -4.677575           -3.287656           -4.346046
 H           -2.566724           -3.804650           -5.507294
 H           -0.395401           -2.925870           -4.645700
 H            0.845339           -1.601843           -2.983374
 H            2.097132           -0.306957           -1.335120
 H            3.560672            2.757284           -1.111011
 H            5.223683            3.406779           -2.834826
 H            7.334289            2.961020           -4.054186
 H            8.692647            0.955623           -3.534606
 H            6.627063           -3.354971            1.267778
 H            4.517291           -2.915873            2.491839
 H            3.150954           -0.916124            1.979001
 H            8.284469           -2.701830           -0.456353
 H            9.044306           -1.122400           -2.219197
 H            4.650187            2.353456            2.034364
 H            4.632170            3.785202            4.070530
 H            2.516240            4.340481            5.204342
 H            0.344525            3.464619            4.340446
 H           -0.896989            2.147735            2.673495
 H           -2.146660            0.833539            1.038661
 H           -2.669952           -2.577175            0.633584
 H           -3.606018           -3.896221            2.507967
 H           -5.753244           -3.248604            3.562664
 H           -7.707511           -1.729015            3.695756
 H           -8.942653            0.262712            2.867016

