116

 C           -6.822745            2.175787           -5.964752
 C           -5.514180            2.795321           -6.068028
 C           -4.626586            2.710082           -5.050137
 C           -4.956347            1.996959           -3.821242
 C           -4.070755            1.902600           -2.779067
 C           -4.403920            1.199256           -1.566699
 C           -5.708385            0.582241           -1.465012
 C           -6.617966            0.696905           -2.576675
 C           -6.272213            1.374181           -3.717251
 C           -7.183725            1.499919           -4.849265
 C           -6.062662           -0.101974           -0.308093
 C           -5.166893           -0.213677            0.784449
 C           -5.526186           -0.910355            1.965965
 C           -4.644838           -1.021523            3.036791
 C           -4.993040           -1.726330            4.244008
 C           -4.111256           -1.831158            5.289560
 C           -4.448865           -2.544519            6.516694
 C           -3.564491           -2.639734            7.536779
 C           -2.250022           -2.032043            7.440238
 C           -1.880636           -1.357429            6.326897
 C           -2.788276           -1.220525            5.193354
 C           -2.430555           -0.542390            4.056548
 C           -3.335673           -0.415175            2.943949
 C           -2.977320            0.273415            1.789747
 C           -3.866578            0.393921            0.693033
 C           -3.511521            1.100276           -0.495355
 C           -2.173243            1.740415           -0.564372
 C           -2.006500            3.060380           -0.149605
 C           -3.117013            3.878556            0.307867
 C           -2.926972            5.163039            0.702790
 C           -1.608460            5.753645            0.683241
 C           -0.537572            5.030880            0.268844
 C           -0.688022            3.652603           -0.164910
 C            0.402655            2.903808           -0.574388
 C            0.248361            1.556603           -0.995671
 C            1.373528            0.771305           -1.361748
 C            1.242569           -0.559677           -1.731577
 C            2.393205           -1.423208           -2.026541
 C            3.623769           -1.352857           -1.236453
 C            3.746108           -0.464482           -0.084112
 C            2.690244           -0.207858            0.793973
 C            2.812050            0.715245            1.853871
 C            1.704695            1.024895            2.700056
 C            1.820855            1.953127            3.715151
 C            0.695782            2.299880            4.569621
 C            0.829095            3.212507            5.563148
 C            2.100414            3.862653            5.801781
 C            3.179109            3.579484            5.030639
 C            3.091544            2.616112            3.943303
 C            4.173538            2.324761            3.136791
 C            4.068778            1.372034            2.077476
 C            5.169566            1.021021            1.272337
 C            5.042857            0.080064            0.244825
 C            6.193197           -0.449442           -0.420933
 C            6.077346           -1.608475           -1.158474
 C            7.249705           -2.314398           -1.625920
 C            7.156553           -3.550792           -2.201445
 C            8.329653           -4.295411           -2.648720
 C            8.214491           -5.555340           -3.127205
 C            6.917251           -6.203031           -3.212736
 C            5.792286           -5.552133           -2.837015
 C            5.845699           -4.182233           -2.338973
 C            4.714467           -3.490423           -1.994665
 C            4.760779           -2.142559           -1.487042
 C            2.203119           -2.268734           -3.123170
 C            3.246059           -2.644363           -4.064852
 C            3.037409           -3.571597           -5.030929
 C            1.759187           -4.244051           -5.144328
 C            0.719360           -3.861130           -4.367498
 C            0.860512           -2.781297           -3.396675
 C           -0.227511           -2.280782           -2.729661
 C           -0.091163           -1.070366           -1.961627
 C           -1.199269           -0.336044           -1.556736
 C           -1.059199            0.971847           -1.026724
 H           -7.495907            2.276261           -6.815073
 H           -5.278686            3.325875           -6.989117
 H           -3.639719            3.169209           -5.111884
 H           -3.082037            2.363731           -2.845516
 H           -7.596025            0.226319           -2.482330
 H           -8.161877            1.029679           -4.757791
 H           -7.046199           -0.564267           -0.229657
 H           -6.514864           -1.364277            2.025583
 H           -5.983420           -2.176918            4.301936
 H           -5.438404           -2.996071            6.576491
 H           -3.806683           -3.171210            8.456023
 H           -1.579504           -2.141018            8.291418
 H           -0.896510           -0.897036            6.238832
 H           -1.445895           -0.083312            3.965968
 H           -1.988828            0.733874            1.719812
 H           -4.110230            3.425057            0.318774
 H           -3.756843            5.780869            1.042755
 H           -1.506625            6.787422            1.009692
 H            0.464956            5.456947            0.249984
 H            1.403398            3.337896           -0.564515
 H            2.359296            1.243407           -1.345084
 H            1.743411           -0.742955            0.679832
 H            0.755696            0.521471            2.513842
 H           -0.256052            1.805674            4.376044
 H           -0.008564            3.483262            6.204150
 H            2.155023            4.582496            6.617130
 H            4.141560            4.060324            5.200679
 H            5.131523            2.818118            3.296413
 H            6.145070            1.457145            1.483769
 H            7.155839            0.035106           -0.276237
 H            8.217461           -1.840654           -1.465053
 H            9.295310           -3.796878           -2.576191
 H            9.082407           -6.122636           -3.460438
 H            6.888687           -7.224572           -3.587737
 H            4.811073           -6.022636           -2.898866
 H            3.735900           -3.978400           -2.043151
 H            4.193314           -2.100576           -4.003159
 H            3.810830           -3.822827           -5.755136
 H            1.664191           -5.039143           -5.881577
 H           -0.262737           -4.324207           -4.455680
 H           -1.212516           -2.735989           -2.815719
 H           -2.202561           -0.748174           -1.686262

