116

 C           -9.278007            6.611745            2.245338
 C           -8.181712            7.322450            1.620097
 C           -7.100544            6.651736            1.153436
 C           -7.008594            5.203788            1.268426
 C           -5.916060            4.505119            0.800199
 C           -5.836887            3.083437            0.929202
 C           -4.711862            2.366444            0.480029
 C           -4.608382            0.979232            0.638350
 C           -5.780604            0.266499            1.089786
 C           -6.883391            0.973363            1.590651
 C           -6.929499            2.376239            1.538647
 C           -8.051803            3.118969            2.024527
 C           -8.106379            4.490713            1.898489
 C           -9.243587            5.263400            2.377996
 C           -5.833158           -1.147406            0.904597
 C           -4.902081           -1.757476            0.085763
 C           -5.078479           -3.122251           -0.351389
 C           -4.257536           -3.683070           -1.291577
 C           -4.439680           -5.049253           -1.769791
 C           -3.659923           -5.552114           -2.754542
 C           -2.615746           -4.746133           -3.361235
 C           -2.392586           -3.476905           -2.947928
 C           -3.184414           -2.884383           -1.876336
 C           -2.948738           -1.614679           -1.415019
 C           -3.720854           -1.027596           -0.350077
 C           -3.430371            0.217972            0.243234
 C           -2.072723            0.741716            0.421668
 C           -1.784356            2.003316            0.974635
 C           -2.552043            2.628225            2.037127
 C           -2.304169            3.898964            2.446742
 C           -1.262832            4.683838            1.824357
 C           -0.444026            4.115000            0.905815
 C           -0.608065            2.722938            0.516880
 C            0.329363            2.091859           -0.274039
 C            0.277380            0.671262           -0.408889
 C            1.403719           -0.044101           -0.862365
 C            1.504607           -1.429380           -0.710868
 C            2.692245           -2.200736           -1.074605
 C            4.054819           -1.693275           -0.903747
 C            5.200183           -2.454665           -1.204518
 C            5.290142           -3.882464           -1.028169
 C            6.377867           -4.603794           -1.444186
 C            6.470252           -6.046169           -1.247983
 C            7.536089           -6.745832           -1.700699
 C            8.623262           -6.077596           -2.394599
 C            8.603200           -4.739136           -2.588385
 C            7.494263           -3.925298           -2.099849
 C            7.489728           -2.561883           -2.198376
 C            6.400757           -1.770250           -1.670411
 C            6.482707           -0.395711           -1.610739
 C            5.520598            0.331534           -0.839298
 C            5.761465            1.648734           -0.438959
 C            4.941230            2.279579            0.517864
 C            5.174190            3.619855            0.950427
 C            4.394329            4.196738            1.933494
 C            4.625239            5.555854            2.398686
 C            3.845776            6.105607            3.362497
 C            2.757700            5.354756            3.951618
 C            2.502817            4.082918            3.556803
 C            3.312895            3.439653            2.534393
 C            3.076088            2.141045            2.127987
 C            3.870155            1.531125            1.111627
 C            3.615038            0.214770            0.668561
 C            4.344314           -0.365447           -0.370197
 C            2.413119           -3.465740           -1.616929
 C            3.199175           -4.100793           -2.661546
 C            2.966322           -5.378178           -3.054688
 C            1.926220           -6.164298           -2.427583
 C            1.092237           -5.590637           -1.527347
 C            1.234103           -4.188468           -1.159518
 C            0.290680           -3.557355           -0.383042
 C            0.333092           -2.130270           -0.255615
 C           -0.795559           -1.421403            0.181784
 C           -0.892033           -0.027136            0.045704
 H          -10.124300            7.198416            2.599626
 H           -8.260399            8.405318            1.538913
 H           -6.269390            7.171414            0.678050
 H           -5.083232            5.027461            0.328599
 H           -3.912964            2.914158           -0.028536
 H           -7.738675            0.422837            1.980551
 H           -8.867980            2.571874            2.494869
 H          -10.062668            4.716065            2.842765
 H           -6.647528           -1.712103            1.351866
 H           -5.916915           -3.679444            0.064903
 H           -5.229304           -5.639182           -1.306754
 H           -3.789942           -6.568501           -3.123283
 H           -2.024297           -5.200488           -4.154293
 H           -1.608193           -2.861566           -3.390031
 H           -2.186054           -0.991634           -1.891643
 H           -3.304845            2.017100            2.542200
 H           -2.868429            4.351553            3.261082
 H           -1.146473            5.721456            2.131758
 H            0.379226            4.667504            0.452613
 H            1.155432            2.640807           -0.724651
 H            2.217228            0.517694           -1.329913
 H            4.473684           -4.377458           -0.493210
 H            5.643637           -6.533366           -0.730849
 H            7.614097           -7.822686           -1.562260
 H            9.448474           -6.694087           -2.748160
 H            9.410252           -4.222989           -3.106657
 H            8.329081           -2.027358           -2.641890
 H            7.303213            0.144357           -2.076876
 H            6.624857            2.182165           -0.834702
 H            5.987104            4.179394            0.489516
 H            5.447849            6.108924            1.947483
 H            4.013784            7.119942            3.721317
 H            2.158705            5.844787            4.717218
 H            1.685708            3.504929            3.988666
 H            2.264400            1.561573            2.570470
 H            2.832936           -0.360173            1.172590
 H            3.955472           -3.489761           -3.162376
 H            3.540145           -5.838753           -3.857473
 H            1.827790           -7.208569           -2.717873
 H            0.274324           -6.145490           -1.068842
 H           -0.535734           -4.104303            0.068686
 H           -1.620757           -1.981031            0.631535

