116

 C            5.927783           -9.017153            2.050956
 C            4.693897           -9.136524            1.295924
 C            4.081994           -8.039770            0.792112
 C            4.639760           -6.706380            0.990479
 C            4.033399           -5.584515            0.486934
 C            4.594153           -4.272846            0.690223
 C            3.985944           -3.129175            0.184093
 C            4.548055           -1.843757            0.392328
 C            3.936126           -0.671012           -0.117311
 C            4.497125            0.584948            0.093408
 C            3.885828            1.784953           -0.418446
 C            4.443335            3.020259           -0.208230
 C            5.684952            3.133384            0.552206
 C            6.289442            2.008103            1.051153
 C            5.726965            0.699568            0.845097
 C            6.335617           -0.444991            1.349511
 C            5.771442           -1.727469            1.140701
 C            6.383853           -2.899477            1.652276
 C            5.824020           -4.154611            1.443531
 C            6.437892           -5.351617            1.959464
 C            5.881018           -6.586556            1.750520
 C            6.492114           -7.806469            2.267254
 C            6.255714            4.458291            0.763508
 C            5.653105            5.564681            0.270761
 C            4.422904            5.463230           -0.485678
 C            3.843376            4.256554           -0.718998
 C            2.585919            4.178867           -1.504375
 C            2.625013            4.069116           -2.883589
 C            3.876188            3.968443           -3.623086
 C            3.889434            3.880251           -4.974729
 C            2.652821            3.881257           -5.728605
 C            1.459438            3.961866           -5.093027
 C            1.384803            4.055653           -3.641365
 C            0.175863            4.139195           -2.989161
 C            0.108384            4.235512           -1.562513
 C           -1.125416            4.318741           -0.897739
 C           -1.199342            4.414412            0.500144
 C           -2.454984            4.511998            1.201349
 C           -3.709316            4.574454            0.409660
 C           -4.248614            5.780535            0.091659
 C           -5.477782            5.870293           -0.667906
 C           -6.119208            4.752891           -1.079884
 C           -5.590852            3.427666           -0.779065
 C           -6.232516            2.291823           -1.200955
 C           -5.710083            0.982438           -0.910615
 C           -6.353349           -0.172307           -1.342329
 C           -5.826188           -1.455810           -1.055047
 C           -6.471512           -2.637937           -1.496670
 C           -5.946461           -3.894022           -1.213839
 C           -6.592604           -5.101298           -1.660919
 C           -6.069727           -6.337019           -1.379833
 C           -6.713520           -7.567416           -1.826847
 C           -6.182853           -8.778645           -1.539710
 C           -4.953371           -8.887774           -0.775977
 C           -4.312070           -7.780668           -0.334953
 C           -4.832966           -6.446397           -0.611292
 C           -4.196582           -5.313927           -0.171921
 C           -4.720868           -4.001731           -0.452475
 C           -4.081240           -2.847051           -0.013224
 C           -4.606329           -1.561452           -0.299392
 C           -3.959998           -0.377309            0.137746
 C           -4.482985            0.878781           -0.152475
 C           -3.833797            2.090482            0.280057
 C           -4.351094            3.326068           -0.013580
 C           -2.494868            4.578241            2.583435
 C           -3.746690            4.648092            3.325505
 C           -3.759547            4.734815            4.677247
 C           -2.521994            4.757417            5.429383
 C           -1.328779            4.681547            4.792934
 C           -1.254750            4.583384            3.341564
 C           -0.045964            4.506772            2.688362
 C            0.021155            4.416635            1.261322
 C            1.254904            4.335222            0.596440
 C            1.329190            4.250432           -0.802089
 H            6.376138           -9.933497            2.432151
 H            4.285710          -10.135933            1.153046
 H            3.156136           -8.113381            0.222965
 H            3.107361           -5.658215           -0.082845
 H            3.059969           -3.210999           -0.385006
 H            3.009243           -0.764002           -0.684014
 H            2.956189            1.680571           -0.983554
 H            7.216079            2.078618            1.620214
 H            7.262448           -0.363922            1.916642
 H            7.310164           -2.802468            2.217829
 H            7.363695           -5.243469            2.523938
 H            7.417906           -7.700360            2.831825
 H            7.183187            4.517666            1.331647
 H            6.069236            6.559861            0.423261
 H            3.980010            6.385656           -0.861843
 H            4.802545            3.962024           -3.045182
 H            4.822586            3.803925           -5.530895
 H            2.719850            3.813760           -6.813292
 H            0.519011            3.960907           -5.642711
 H           -0.759706            4.134970           -3.549176
 H           -2.046831            4.306504           -1.484575
 H           -3.773417            6.711753            0.401065
 H           -5.861065            6.865730           -0.888970
 H           -7.047461            4.803244           -1.647550
 H           -7.158681            2.353675           -1.771702
 H           -7.278534           -0.099599           -1.913152
 H           -7.395076           -2.549011           -2.067909
 H           -7.514741           -5.000917           -2.232672
 H           -7.635577           -7.468887           -2.398778
 H           -6.655891           -9.702783           -1.868460
 H           -4.572803           -9.888008           -0.574521
 H           -3.389007           -7.846569            0.239766
 H           -3.273443           -5.379887            0.403599
 H           -3.158537           -2.921166            0.562327
 H           -3.036075           -0.462494            0.710601
 H           -2.907373            1.994179            0.851974
 H           -4.674326            4.622550            2.750307
 H           -4.693424            4.786741            5.235020
 H           -2.588466            4.834749            6.513410
 H           -0.387821            4.693118            5.341685
 H            0.889969            4.515116            3.247789
 H            2.176016            4.336363            1.183950

