92

 C           10.004872            2.491808           -1.193030
 C            9.648485            1.718679           -0.135716
 C            8.352733            1.063351           -0.093296
 C            7.969170            0.269586            0.976609
 C            6.696612           -0.362129            1.000568
 C            6.288338           -1.177597            2.089387
 C            5.043306           -1.787900            2.101321
 C            4.620405           -2.618838            3.214481
 C            3.398522           -3.209522            3.217454
 C            2.491093           -3.029303            2.111256
 C            2.839111           -2.262334            1.039811
 C            1.890813           -2.096189           -0.090956
 C            1.904537           -2.977847           -1.158052
 C            2.867943           -4.066125           -1.260288
 C            2.851045           -4.925624           -2.307136
 C            1.866830           -4.789417           -3.360787
 C            0.951622           -3.791749           -3.322589
 C            0.928933           -2.833077           -2.225936
 C            0.006422           -1.812774           -2.185032
 C           -0.013361           -0.873375           -1.105155
 C           -0.947586            0.174225           -1.071209
 C           -0.975685            1.097027           -0.014400
 C           -1.929462            2.176959            0.042299
 C           -2.881248            2.340381           -1.085934
 C           -4.160024            1.637080           -1.051902
 C           -4.525942            0.808416           -0.002584
 C           -5.777333            0.135934            0.003905
 C           -6.156846           -0.715761            1.075990
 C           -7.380570           -1.366971            1.072835
 C           -7.785683           -2.241057            2.159739
 C           -8.988416           -2.869844            2.138301
 C           -9.896313           -2.684213            1.029313
 C           -9.563285           -1.877712           -0.010541
 C           -8.288779           -1.180942           -0.036313
 C           -7.929009           -0.352921           -1.088344
 C           -6.677280            0.319784           -1.095702
 C           -6.292908            1.169962           -2.166441
 C           -5.067808            1.819717           -2.162336
 C           -4.668742            2.685651           -3.257493
 C           -3.466287            3.314794           -3.244800
 C           -2.555664            3.140388           -2.140164
 C           -1.945648            3.055660            1.111951
 C           -2.916069            4.137029            1.220805
 C           -2.901661            4.993332            2.270526
 C           -1.913035            4.860624            3.320573
 C           -0.992413            3.868271            3.276993
 C           -0.967307            2.912904            2.177618
 C           -0.041123            1.896094            2.133119
 C           -0.020356            0.958468            1.051953
 C            0.914421           -0.088656            1.017542
 C            0.940929           -1.012729           -0.037888
 C            4.138791           -1.599436            0.989144
 C            4.527844           -0.804617           -0.077874
 C            5.800190           -0.172729           -0.100958
 C            6.204635            0.642339           -1.192215
 C            7.448733            1.253848           -1.205085
 C            7.879957            2.089353           -2.312095
 C            9.101856            2.680586           -2.305474
 H           10.973110            2.988501           -1.234555
 H           10.319187            1.567477            0.708984
 H            8.644158            0.119077            1.818279
 H            6.974572           -1.318367            2.923882
 H            5.316629           -2.748051            4.042169
 H            3.069014           -3.833911            4.047270
 H            1.521266           -3.524976            2.158005
 H            3.608753           -4.158732           -0.463690
 H            3.571862           -5.737859           -2.389011
 H            1.891163           -5.512081           -4.174775
 H            0.204332           -3.672803           -4.106253
 H           -0.733511           -1.700885           -2.977881
 H           -1.669720            0.268851           -1.885635
 H           -3.847678            0.659809            0.841029
 H           -5.464109           -0.850315            1.906983
 H           -7.090981           -2.371238            2.988639
 H           -9.301969           -3.526906            2.947875
 H          -10.848749           -3.211328            1.058685
 H          -10.237470           -1.729431           -0.852900
 H           -8.606892           -0.206338           -1.928292
 H           -6.981394            1.306000           -2.999784
 H           -5.366582            2.809114           -4.084656
 H           -3.154783            3.965700           -4.061158
 H           -1.601692            3.666959           -2.174419
 H           -3.660314            4.226864            0.427245
 H           -3.628448            5.799641            2.357802
 H           -1.939277            5.580866            4.136750
 H           -0.242317            3.751130            4.058373
 H            0.700571            1.785382            2.924557
 H            1.637674           -0.182239            1.831151
 H            3.852405           -0.651959           -0.922930
 H            5.515047            0.780584           -2.025152
 H            7.188975            2.222010           -3.143622
 H            9.434966            3.308387           -3.130337

