104

 C           14.353907           -2.691169           -2.033930
 C           13.630246           -3.408880           -3.063995
 C           12.309232           -3.185061           -3.264059
 C           11.580221           -2.219658           -2.453125
 C           10.238084           -1.978911           -2.642054
 C            9.534329           -1.025816           -1.836884
 C            8.166342           -0.775869           -2.023983
 C            7.484772            0.159024           -1.229937
 C            6.087943            0.417839           -1.412135
 C            5.423522            1.332835           -0.626803
 C            4.003772            1.595770           -0.795945
 C            3.359439            2.496275           -0.008333
 C            1.907706            2.756712           -0.165058
 C            1.456321            3.766949           -0.995883
 C            2.363733            4.635264           -1.734605
 C            1.896679            5.608602           -2.552734
 C            0.472829            5.817983           -2.715804
 C           -0.417330            5.044843           -2.049299
 C            0.027699            3.982613           -1.157021
 C           -0.871328            3.188610           -0.482166
 C           -0.429686            2.141922            0.389391
 C           -1.346963            1.328907            1.074338
 C           -0.920331            0.297108            1.925184
 C           -1.844318           -0.558571            2.626511
 C           -3.298332           -0.351821            2.418816
 C           -3.973236           -1.006836            1.438309
 C           -5.400024           -0.803247            1.245804
 C           -6.097948           -1.460757            0.258064
 C           -7.503801           -1.252620            0.077964
 C           -8.220763           -1.919386           -0.926928
 C           -9.598010           -1.709206           -1.096545
 C          -10.338079           -2.385061           -2.119718
 C          -11.689066           -2.174254           -2.280628
 C          -12.454679           -2.854025           -3.316240
 C          -13.783768           -2.634403           -3.459687
 C          -14.479822           -1.713947           -2.583260
 C          -13.815878           -1.054609           -1.603207
 C          -12.386928           -1.250383           -1.400886
 C          -11.693458           -0.590210           -0.410760
 C          -10.287460           -0.794434           -0.225244
 C           -9.569190           -0.127490            0.780468
 C           -8.191727           -0.337527            0.950374
 C           -7.444754            0.335619            1.972214
 C           -6.093745            0.121234            2.128375
 C           -5.318637            0.796463            3.160652
 C           -3.990408            0.574828            3.300786
 C           -1.390556           -1.559354            3.468399
 C           -2.295728           -2.434664            4.201488
 C           -1.826562           -3.415296            5.009821
 C           -0.402433           -3.622489            5.172403
 C            0.485940           -2.834599            4.520828
 C            0.038131           -1.764871            3.639283
 C            0.935410           -0.963063            2.971286
 C            0.491017            0.083638            2.101865
 C            1.408258            0.897907            1.418310
 C            0.981572            1.921067            0.558030
 C            4.080822            3.226869            1.021775
 C            5.404366            3.017215            1.215261
 C            6.145044            2.058491            0.406328
 C            7.488837            1.825675            0.596485
 C            8.200177            0.874987           -0.206609
 C            9.569081            0.624879           -0.020269
 C           10.251455           -0.311159           -0.813815
 C           11.647940           -0.578060           -0.634607
 C           12.305973           -1.498662           -1.419521
 C           13.724608           -1.782071           -1.250741
 H           15.414056           -2.910032           -1.915834
 H           14.185103           -4.128110           -3.664661
 H           11.750781           -3.716284           -4.033899
 H            9.681261           -2.511731           -3.412338
 H            7.623895           -1.317150           -2.798692
 H            5.560162           -0.131860           -2.191350
 H            3.475660            1.043247           -1.573392
 H            3.434776            4.471259           -1.603337
 H            2.571221            6.258363           -3.108433
 H            0.150845            6.611941           -3.387764
 H           -1.491763            5.188657           -2.158655
 H           -1.944486            3.339878           -0.601670
 H           -2.416473            1.504808            0.938862
 H           -3.466699           -1.703354            0.769792
 H           -5.591450           -2.156918           -0.410355
 H           -7.699669           -2.612420           -1.586949
 H           -9.802242           -3.074408           -2.771663
 H          -11.916961           -3.542765           -3.966838
 H          -14.366022           -3.137400           -4.230314
 H          -15.548015           -1.574859           -2.742503
 H          -14.326017           -0.359773           -0.937143
 H          -12.204553            0.104673            0.255009
 H          -10.090996            0.565047            1.440363
 H           -7.976606            1.025722            2.626853
 H           -5.850152            1.486583            3.815733
 H           -3.400276            1.074224            4.069062
 H           -3.367262           -2.269691            4.075331
 H           -2.499949           -4.072432            5.558127
 H           -0.078688           -4.426853            5.830982
 H            1.560769           -2.974295            4.631684
 H            2.008947           -1.112731            3.089659
 H            2.477712            0.726999            1.561142
 H            3.515990            3.939973            1.622012
 H            5.957259            3.558288            1.983104
 H            8.041400            2.362584            1.367287
 H           10.111895            1.166364            0.754046
 H           12.180298           -0.031150            0.143135
 H           14.255890           -1.235281           -0.472590

