104

 C            3.082677           -3.859447           -4.503277
 C            1.952403           -2.956907           -4.432772
 C            1.985596           -1.868410           -3.626941
 C            3.153313           -1.566656           -2.809795
 C            4.285192           -2.474927           -2.881265
 C            4.193531           -3.631034           -3.762551
 C            5.412268           -2.233039           -2.129430
 C            5.498086           -1.095343           -1.265156
 C            6.648323           -0.852793           -0.497510
 C            6.733154            0.258812            0.353995
 C            7.898654            0.515290            1.147047
 C            7.965836            1.606761            1.983724
 C            9.140103            1.878873            2.801640
 C            9.186342            2.956510            3.621356
 C            8.065896            3.871638            3.704848
 C            6.949563            3.667242            2.964916
 C            6.840943            2.524608            2.068446
 C            5.712905            2.297193            1.312155
 C            5.619490            1.165857            0.438030
 C            4.471103            0.923395           -0.332173
 C            4.383140           -0.188864           -1.184424
 C            3.213447           -0.456456           -1.983376
 C            2.065372            0.484047           -1.914590
 C            1.972834            1.544313           -2.800358
 C            2.990547            1.809326           -3.808575
 C            2.870538            2.843435           -4.675297
 C            1.722690            3.724934           -4.620840
 C            0.748362            3.530254           -3.700352
 C            0.822446            2.431170           -2.747022
 C           -0.170696            2.217981           -1.818550
 C           -0.096516            1.132177           -0.888482
 C           -1.113807            0.913239            0.054257
 C           -1.046148           -0.144977            0.973277
 C           -2.076315           -0.384910            1.953227
 C           -3.251972            0.522622            1.990750
 C           -4.402659            0.197759            1.184893
 C           -4.439301           -0.931474            0.351631
 C           -5.570607           -1.232696           -0.423071
 C           -5.611387           -2.382591           -1.276614
 C           -6.723634           -2.669474           -2.036001
 C           -6.779220           -3.832179           -2.911262
 C           -7.881104           -4.095923           -3.653993
 C           -9.038491           -3.226089           -3.594475
 C           -9.041876           -2.132164           -2.795093
 C           -7.885275           -1.796653           -1.975610
 C           -7.868273           -0.687773           -1.159361
 C           -6.719988           -0.369443           -0.363621
 C           -6.685708            0.760135            0.467865
 C           -5.552399            1.061607            1.239799
 C           -5.517634            2.216733            2.084587
 C           -4.407086            2.515229            2.840665
 C           -4.367454            3.688907            3.702589
 C           -3.272772            3.972358            4.448390
 C           -2.108310            3.112544            4.403281
 C           -2.092825            2.009620            3.616943
 C           -3.240782            1.649604            2.795657
 C           -1.972748           -1.432796            2.852779
 C           -2.990787           -1.699119            3.860318
 C           -2.861334           -2.722233            4.738735
 C           -1.703119           -3.590669            4.697919
 C           -0.728546           -3.394788            3.777867
 C           -0.812761           -2.307442            2.812182
 C            0.177439           -2.096570            1.879970
 C            0.095215           -1.019610            0.940653
 C            1.109533           -0.804216           -0.006188
 C            1.040350            0.251890           -0.927109
 H            3.004921           -4.719347           -5.166821
 H            1.082067           -3.184610           -5.045989
 H            1.136858           -1.183667           -3.564791
 H            5.051968           -4.300253           -3.799982
 H            6.266957           -2.907155           -2.177723
 H            7.489304           -1.542094           -0.564048
 H            8.734419           -0.179583            1.072778
 H            9.974523            1.182764            2.727561
 H           10.058782            3.167796            4.238053
 H            8.156837            4.721563            4.379329
 H            6.099665            4.346994            3.016111
 H            4.862223            2.976984            1.364339
 H            3.627916            1.615399           -0.264136
 H            3.854111            1.141674           -3.838840
 H            3.627300            3.042020           -5.432814
 H            1.675397            4.540611           -5.340706
 H           -0.120840            4.184466           -3.643009
 H           -1.040668            2.873911           -1.774002
 H           -1.976683            1.583411            0.070379
 H           -3.569330           -1.591219            0.302296
 H           -4.733730           -3.028439           -1.310116
 H           -5.902124           -4.477668           -2.944058
 H           -7.932640           -4.961358           -4.312645
 H           -9.897494           -3.484578           -4.211879
 H           -9.904911           -1.470131           -2.739039
 H           -8.732316           -0.026584           -1.103515
 H           -7.553873            1.416514            0.515333
 H           -6.398484            2.857395            2.114840
 H           -5.251465            4.324784            3.721692
 H           -3.233957            4.845676            5.097786
 H           -1.252843            3.384306            5.019620
 H           -1.218673            1.356161            3.573823
 H           -3.862606           -1.041886            3.880738
 H           -3.618707           -2.921613            5.495444
 H           -1.648477           -4.397893            5.426694
 H            0.148104           -4.039749            3.729945
 H            1.051241           -2.747692            1.839911
 H            1.971570           -1.475505           -0.022920

