104

 C            2.506544           -7.004903           -2.688069
 C            2.739565           -5.759137           -3.351092
 C            2.692347           -4.581916           -2.654220
 C            2.407222           -4.579704           -1.246528
 C            2.350294           -3.373277           -0.499746
 C            2.071535           -3.376355            0.858377
 C            1.837940           -4.634203            1.518843
 C            1.891105           -5.818555            0.801901
 C            2.174802           -5.818763           -0.588449
 C            2.232263           -7.036422           -1.347586
 C            1.544960           -4.649167            2.948873
 C            1.488776           -3.511283            3.667880
 C            1.714814           -2.207896            3.051049
 C            1.647007           -1.051315            3.811374
 C            1.851597            0.222399            3.221937
 C            1.774166            1.432103            3.992593
 C            1.967671            2.648535            3.400083
 C            2.255490            2.731630            1.995627
 C            2.469611            4.075546            1.404855
 C            3.703692            4.694635            1.511270
 C            4.839255            4.063851            2.170965
 C            6.036826            4.690233            2.264657
 C            6.226060            6.011466            1.703042
 C            5.205970            6.645319            1.076723
 C            3.894996            6.022432            0.953111
 C            2.850629            6.665441            0.328790
 C            1.566313            6.045988            0.205531
 C            0.500307            6.701642           -0.429218
 C           -0.757025            6.092684           -0.558813
 C           -1.843279            6.761690           -1.207936
 C           -3.075872            6.162852           -1.333869
 C           -4.184839            6.837367           -1.995199
 C           -5.397817            6.245291           -2.107337
 C           -5.621655            4.919059           -1.570602
 C           -4.621885            4.245048           -0.953183
 C           -3.295036            4.827944           -0.803246
 C           -2.257009            4.158204           -0.178189
 C           -2.467015            2.791637            0.360006
 C           -2.867913            2.650552            1.731031
 C           -3.087776            1.408759            2.258923
 C           -2.920217            0.230789            1.454320
 C           -3.138412           -1.068935            1.978980
 C           -2.967315           -2.194766            1.189443
 C           -3.181416           -3.527014            1.746070
 C           -3.020053           -4.636237            0.999010
 C           -2.628124           -4.559805           -0.405173
 C           -2.474092           -5.715202           -1.154006
 C           -2.095931           -5.655307           -2.520443
 C           -1.933233           -6.842482           -3.311930
 C           -1.568692           -6.753467           -4.628164
 C           -1.343860           -5.477077           -5.232987
 C           -1.490506           -4.327593           -4.504228
 C           -1.873093           -4.385750           -3.121109
 C           -2.033555           -3.209381           -2.342006
 C           -2.403338           -3.271288           -1.007249
 C           -2.571804           -2.059865           -0.188590
 C           -2.358830           -0.790743           -0.704402
 C           -2.522331            0.370621            0.096265
 C           -2.297302            1.684623           -0.433755
 C           -0.959932            4.769261           -0.032579
 C            0.108462            4.118864            0.605552
 C            1.367522            4.725879            0.741800
 C            2.337622            1.593231            1.233475
 C            2.135549            0.304228            1.830891
 C            2.210114           -0.889144            1.065104
 C            2.005004           -2.132886            1.642687
 H            2.550764           -7.921307           -3.274065
 H            2.951531           -5.771388           -4.418754
 H            2.866059           -3.628426           -3.150351
 H            2.529482           -2.431527           -1.022381
 H            1.712860           -6.770460            1.300708
 H            2.051463           -7.978162           -0.832285
 H            1.372306           -5.621876            3.410113
 H            1.269441           -3.523636            4.735583
 H            1.430729           -1.107788            4.877798
 H            1.556628            1.355730            5.057330
 H            1.908442            3.574367            3.972329
 H            4.688962            3.065364            2.586382
 H            6.887152            4.223238            2.758860
 H            7.209559            6.468566            1.801579
 H            5.329866            7.637496            0.645276
 H            2.981738            7.663903           -0.087022
 H            0.652104            7.703493           -0.829371
 H           -1.668621            7.762207           -1.602189
 H           -3.996840            7.833044           -2.394173
 H           -6.233317            6.740787           -2.599585
 H           -6.615498            4.488666           -1.681805
 H           -4.780489            3.244097           -0.546778
 H           -2.990365            3.552273            2.330902
 H           -3.392564            1.287795            3.297916
 H           -3.440909           -1.170511            3.020934
 H           -3.473256           -3.585437            2.794829
 H           -3.174874           -5.630935            1.417727
 H           -2.641056           -6.690664           -0.698520
 H           -2.105448           -7.808357           -2.839849
 H           -1.443183           -7.646642           -5.237727
 H           -1.054968           -5.443686           -6.281953
 H           -1.320873           -3.351310           -4.955402
 H           -1.857099           -2.243612           -2.819587
 H           -2.056905           -0.663617           -1.745892
 H           -1.990942            1.785203           -1.474757
 H           -0.044658            3.111753            1.007348
 H            2.555576            1.648923            0.167039
 H            2.430229           -0.807522           -0.001343

