104

 C           -0.885732            3.379616           -5.657923
 C           -0.974874            1.955236           -5.562815
 C           -0.359494            1.288253           -4.538132
 C            0.383228            2.008977           -3.542023
 C            1.042425            1.340964           -2.476662
 C            1.759462            2.041032           -1.518581
 C            1.820703            3.476868           -1.603764
 C            1.186204            4.140580           -2.641566
 C            0.462608            3.425976           -3.631382
 C           -0.189713            4.095411           -4.721642
 C            2.556279            4.222329           -0.586293
 C            3.188561            3.597665            0.426440
 C            3.179377            2.143017            0.549248
 C            3.856343            1.519295            1.584597
 C            3.869518            0.105017            1.704527
 C            4.577303           -0.548633            2.769235
 C            4.582533           -1.913806            2.862868
 C            3.882516           -2.707349            1.905257
 C            3.193015           -2.113634            0.875341
 C            2.464629           -2.961656           -0.101794
 C            3.120149           -3.506791           -1.192212
 C            4.525290           -3.242174           -1.470318
 C            5.149166           -3.800880           -2.535026
 C            4.431662           -4.681476           -3.433248
 C            3.121225           -4.956463           -3.228833
 C            2.398406           -4.379722           -2.103188
 C            1.065864           -4.651418           -1.891106
 C            0.360733           -4.084230           -0.782208
 C           -0.999232           -4.353833           -0.564339
 C           -1.688489           -3.792474            0.521640
 C           -3.074682           -4.067008            0.748988
 C           -3.748239           -3.505891            1.810100
 C           -5.157317           -3.787080            2.049499
 C           -5.815956           -3.223189            3.090202
 C           -5.132914           -2.319934            3.992971
 C           -3.821575           -2.028862            3.818116
 C           -3.056498           -2.612395            2.724622
 C           -1.712276           -2.343730            2.534024
 C           -0.973629           -1.455927            3.466983
 C           -0.807075           -0.059686            3.143500
 C           -1.349681            0.512552            1.963220
 C           -1.185360            1.855934            1.664766
 C           -0.437694            2.684337            2.574184
 C            0.099520            2.139204            3.729063
 C           -0.075295            0.765444            4.041175
 C            0.468397            0.194338            5.241246
 C            0.286280           -1.132524            5.522373
 C           -0.442078           -1.970021            4.624867
 C           -0.258707            4.100251            2.267021
 C           -0.791345            4.652604            1.159295
 C           -1.569688            3.863319            0.208966
 C           -2.121410            4.456754           -0.915110
 C           -2.881427            3.698248           -1.843268
 C           -3.474213            4.298974           -3.005280
 C           -4.202218            3.541741           -3.882704
 C           -4.380858            2.140801           -3.656349
 C           -3.829852            1.539676           -2.556974
 C           -3.064238            2.306777           -1.614195
 C           -2.493086            1.711057           -0.459009
 C           -1.761689            2.457515            0.452159
 C           -0.990034           -2.921978            1.428760
 C            0.371940           -2.660818            1.211331
 C            1.065671           -3.221749            0.127684
 C            3.168710           -0.677068            0.745449
 C            2.473019           -0.023275           -0.305303
 C            2.465594            1.357768           -0.423390
 H           -1.383292            3.876341           -6.488686
 H           -1.542712            1.418954           -6.320788
 H           -0.420710            0.204143           -4.455299
 H            0.973965            0.251787           -2.425826
 H            1.234687            5.226378           -2.710534
 H           -0.115008            5.179347           -4.783360
 H            2.570380            5.308245           -0.680619
 H            3.732257            4.155654            1.188520
 H            4.391706            2.111952            2.325150
 H            5.105304            0.066647            3.495713
 H            5.115709           -2.421535            3.665562
 H            3.902764           -3.792170            2.008586
 H            5.055602           -2.571866           -0.790504
 H            6.198916           -3.605523           -2.747713
 H            4.981121           -5.106740           -4.271637
 H            2.566751           -5.616107           -3.894719
 H            0.519385           -5.308857           -2.566084
 H           -1.529321           -5.013573           -1.249879
 H           -3.586277           -4.736644            0.058854
 H           -5.655855           -4.467981            1.361150
 H           -6.868952           -3.426711            3.278299
 H           -5.709371           -1.886517            4.808604
 H           -3.298631           -1.344337            4.489383
 H           -1.910253           -0.135623            1.282755
 H            0.668638            2.763211            4.416845
 H            1.026757            0.840437            5.916493
 H            0.693327           -1.576858            6.429670
 H           -0.563692           -3.024120            4.873273
 H            0.324742            4.690468            2.973418
 H           -0.658801            5.710696            0.933139
 H           -1.976987            5.520007           -1.101808
 H           -3.329884            5.365451           -3.167868
 H           -4.657291            3.987052           -4.765337
 H           -4.962567            1.568643           -4.376649
 H           -3.959398            0.474033           -2.374085
 H           -2.644117            0.641053           -0.298462
 H            0.906135           -1.998271            1.902192
 H            1.935415           -0.639322           -1.032525

