96

 C           -0.230931            4.282336           -6.193106
 C           -0.191176            2.884676           -6.460999
 C           -0.608302            1.985610           -5.510659
 C           -1.089684            2.428253           -4.238819
 C           -1.132575            3.822361           -3.977213
 C           -0.689809            4.739746           -4.983289
 C           -1.615847            4.299646           -2.720544
 C           -2.040479            3.423332           -1.746658
 C           -2.540356            3.894421           -0.457993
 C           -2.934096            3.034182            0.504133
 C           -2.879016            1.590839            0.302937
 C           -2.414517            1.086974           -0.951261
 C           -1.992669            1.999538           -1.989088
 C           -1.529021            1.507370           -3.220116
 C           -1.503085            0.078611           -3.427217
 C           -1.893799           -0.788291           -2.455194
 C           -2.351707           -0.313105           -1.170882
 C           -2.725095           -1.196818           -0.121495
 C           -2.600506           -2.668202           -0.269622
 C           -3.717941           -3.465762           -0.446264
 C           -5.058373           -2.913836           -0.588742
 C           -6.137554           -3.716657           -0.750854
 C           -5.988779           -5.156735           -0.785298
 C           -4.765637           -5.725770           -0.664135
 C           -3.569528           -4.911058           -0.495963
 C           -2.324021           -5.484983           -0.379290
 C           -1.148401           -4.681716           -0.231574
 C            0.127322           -5.259800           -0.136051
 C            1.281069           -4.467409           -0.027556
 C            2.586205           -5.047776            0.065664
 C            3.712050           -4.260361            0.154755
 C            5.041833           -4.846658            0.256043
 C            6.147081           -4.066787            0.327703
 C            6.033574           -2.623133            0.306498
 C            4.820515           -2.026839            0.215462
 C            3.596071           -2.811275            0.136843
 C            2.345907           -2.226873            0.039492
 C            2.183178           -0.754919           -0.059492
 C            2.093503            0.055139            1.104075
 C            2.202027           -0.491183            2.435893
 C            2.103557            0.306967            3.532357
 C            1.884073            1.729432            3.414363
 C            1.774279            2.288717            2.130642
 C            1.550671            3.707447            1.971563
 C            1.447103            4.513900            3.083207
 C            1.554487            3.967977            4.398951
 C            1.440868            4.812512            5.549596
 C            1.542624            4.288547            6.813934
 C            1.763640            2.893806            6.994805
 C            1.875159            2.064060            5.906508
 C            1.773268            2.577005            4.575421
 C            1.433718            4.247135            0.619679
 C            1.528123            3.454853           -0.468541
 C            1.760261            2.020265           -0.346146
 C            1.879782            1.450121            0.958842
 C            1.862206            1.200256           -1.468231
 C            2.074699           -0.179829           -1.322875
 C            1.153486           -3.035777           -0.015937
 C           -0.127108           -2.464299           -0.068072
 C           -1.283211           -3.250783           -0.185017
 C           -3.178689           -0.685899            1.091792
 C           -3.259984            0.699528            1.303927
 H            0.105629            4.975092           -6.962868
 H            0.172710            2.545299           -7.429466
 H           -0.581569            0.913595           -5.714506
 H           -0.727552            5.806550           -4.768052
 H           -1.645110            5.375266           -2.551223
 H           -2.580795            4.973008           -0.305555
 H           -3.302623            3.387963            1.467664
 H           -1.158614           -0.291081           -4.395102
 H           -1.869349           -1.867685           -2.621411
 H           -5.159379           -1.826971           -0.568198
 H           -7.140646           -3.307856           -0.861434
 H           -6.888384           -5.756961           -0.913152
 H           -4.634316           -6.806710           -0.689537
 H           -2.208253           -6.567942           -0.401790
 H            0.224459           -6.344541           -0.151191
 H            2.668107           -6.133939            0.062856
 H            5.108912           -5.933618            0.271703
 H            7.145185           -4.495955            0.403460
 H            6.951805           -2.041086            0.367130
 H            4.721376           -0.939459            0.202507
 H            2.364605           -1.566632            2.535155
 H            2.187706           -0.115154            4.535839
 H            1.280956            5.585261            2.978887
 H            1.272394            5.877597            5.398837
 H            1.456936            4.925604            7.692671
 H            1.842139            2.500842            8.007011
 H            2.044760            0.994329            6.042016
 H            1.262898            5.319463            0.527134
 H            1.428097            3.857136           -1.477954
 H            1.765366            1.622807           -2.468798
 H            2.144083           -0.807030           -2.212624
 H           -0.223317           -1.373603           -0.020899
 H           -3.465099           -1.367687            1.894237
 H           -3.613262            1.070872            2.265559

