96

 C            3.974690            2.082612            5.447666
 C            3.366905            3.267651            4.991966
 C            2.884661            3.355753            3.688124
 C            3.004896            2.235732            2.805650
 C            3.630872            1.054445            3.274422
 C            4.108578            0.991270            4.605798
 C            3.779081           -0.046348            2.357703
 C            3.304882            0.029817            1.084460
 C            2.606382            1.191164            0.584598
 C            2.501881            2.298352            1.451727
 C            1.898794            3.530864            1.001992
 C            1.442421            3.627156           -0.289490
 C            1.508030            2.510478           -1.178337
 C            0.999068            2.681414           -2.503837
 C            0.990038            1.632828           -3.385916
 C            1.465891            0.367724           -2.963208
 C            1.966365            0.172461           -1.686531
 C            2.326697           -1.242219           -1.399596
 C            3.485940           -1.797404           -1.919254
 C            4.494476           -0.998068           -2.600693
 C            5.619721           -1.562025           -3.102214
 C            5.851102           -2.985955           -2.977760
 C            4.948272           -3.778392           -2.351635
 C            3.724598           -3.224749           -1.787306
 C            2.799276           -4.025905           -1.157738
 C            1.607815           -3.474110           -0.587855
 C            0.659467           -4.286495            0.052396
 C           -0.489145           -3.738030            0.644042
 C           -1.473532           -4.566077            1.271272
 C           -2.590926           -4.020925            1.862361
 C           -3.606280           -4.860284            2.484102
 C           -4.698570           -4.317016            3.073100
 C           -4.882669           -2.881127            3.101088
 C           -3.965191           -2.055569            2.541701
 C           -2.771975           -2.579509            1.892478
 C           -1.824071           -1.754607            1.306644
 C           -1.886556           -0.277847            1.475305
 C           -2.292428            0.660457            0.462545
 C           -2.122465            2.041719            0.770348
 C           -1.655613            2.461738            2.055330
 C           -1.334383            1.537657            3.014904
 C           -1.440358            0.158358            2.711699
 C           -2.395746            3.050865           -0.203506
 C           -2.837170            2.719683           -1.460886
 C           -3.081422            3.744612           -2.472244
 C           -3.533641            3.429477           -3.702921
 C           -3.804728            2.045388           -4.073920
 C           -3.578802            1.016581           -3.105238
 C           -3.858111           -0.328174           -3.452230
 C           -4.338027           -0.636328           -4.748100
 C           -4.542099            0.372292           -5.674733
 C           -4.279846            1.714430           -5.340808
 C           -3.658379           -1.344273           -2.451443
 C           -3.187417           -1.029677           -1.214076
 C           -2.839186            0.320149           -0.835551
 C           -3.077087            1.333564           -1.786866
 C           -0.681517           -2.312772            0.625113
 C            0.247907           -1.508988           -0.053643
 C            1.379918           -2.056513           -0.676648
 C            2.045939            1.262035           -0.749835
 C            1.797775            4.656750            1.926803
 C            2.258361            4.575617            3.191545
 H            4.342369            2.034078            6.471912
 H            3.280405            4.116334            5.668579
 H            4.583108            0.077228            4.959147
 H            4.292085           -0.942192            2.708368
 H            3.479585           -0.813682            0.416362
 H            1.009493            4.556382           -0.659755
 H            0.610670            3.657142           -2.793443
 H            0.606623            1.746439           -4.398979
 H            1.413391           -0.467959           -3.664562
 H            4.313020            0.075481           -2.684613
 H            6.377909           -0.966716           -3.608061
 H            6.769079           -3.390357           -3.401778
 H            5.105372           -4.851322           -2.249783
 H            2.957024           -5.101048           -1.079214
 H            0.818303           -5.363347            0.092273
 H           -1.316423           -5.644168            1.268955
 H           -3.450987           -5.937931            2.455262
 H           -5.464248           -4.936354            3.538112
 H           -5.778687           -2.493328            3.582532
 H           -4.096633           -0.971588            2.553050
 H           -1.551525            3.528307            2.251445
 H           -0.978865            1.841080            3.998765
 H           -1.139950           -0.565794            3.472210
 H           -2.234518            4.092505            0.074063
 H           -2.882369            4.777675           -2.187290
 H           -3.715987            4.194266           -4.457699
 H           -4.545918           -1.673241           -5.006973
 H           -4.910866            0.135264           -6.671870
 H           -4.455150            2.491815           -6.082678
 H           -3.903726           -2.374917           -2.708592
 H           -3.090122           -1.829828           -0.480368
 H            0.086163           -0.425444           -0.096566
 H            1.334078            5.567553            1.548065
 H            2.183836            5.416060            3.881560

