96

 C           -1.911270           -1.580094           -6.293497
 C           -1.745755           -0.232385           -6.721375
 C           -1.720090            0.789162           -5.804008
 C           -1.859771            0.525030           -4.405092
 C           -2.022744           -0.819261           -3.982729
 C           -2.045344           -1.866554           -4.958153
 C           -2.163139           -1.121602           -2.593616
 C           -2.147750           -0.125782           -1.643479
 C           -1.982791            1.250855           -2.054505
 C           -1.840162            1.572858           -3.415113
 C           -1.674317            2.958700           -3.787674
 C           -1.653447            3.949872           -2.856576
 C           -1.796127            3.649494           -1.451941
 C           -1.773238            4.664124           -0.465207
 C           -1.903704            4.338381            0.875484
 C           -2.064131            2.999567            1.277038
 C           -2.098269            1.980390            0.327117
 C           -1.960640            2.297181           -1.059390
 C           -2.265958            0.586441            0.710034
 C           -2.289112           -0.407719           -0.210018
 C           -2.442376           -1.816354            0.238594
 C           -3.680992           -2.434335            0.235178
 C           -4.883644           -1.768274           -0.246109
 C           -6.088019           -2.387987           -0.225515
 C           -6.214464           -3.741672            0.273232
 C           -5.129342           -4.412234            0.729178
 C           -3.810523           -3.792796            0.736610
 C           -2.706856           -4.460713            1.216667
 C           -1.415486           -3.843065            1.233321
 C           -0.292105           -4.507819            1.749479
 C            0.968470           -3.891422            1.783830
 C            2.107529           -4.552447            2.345298
 C            3.336208           -3.934389            2.398516
 C            4.495351           -4.597515            2.981430
 C            5.700392           -3.981111            3.035873
 C            5.865302           -2.639884            2.515379
 C            4.820456           -1.980317            1.960212
 C            3.502237           -2.592620            1.863938
 C            2.422363           -1.943631            1.289995
 C            2.583932           -0.600030            0.675787
 C            3.118076           -0.493165           -0.564701
 C            3.288558            0.796695           -1.216622
 C            2.864692            1.973733           -0.526349
 C            3.017419            3.238773           -1.147943
 C            3.594769            3.316748           -2.437963
 C            4.001644            2.164992           -3.092496
 C            3.849302            0.903688           -2.488112
 C            2.572961            4.415797           -0.440257
 C            2.019135            4.317699            0.797946
 C            1.859691            3.042257            1.457345
 C            2.284354            1.879112            0.792603
 C            2.145231            0.585321            1.423297
 C            1.606778            0.500312            2.687352
 C            1.164641            1.667577            3.382234
 C            0.598942            1.561010            4.692823
 C            0.168005            2.679659            5.360858
 C            0.278598            3.961646            4.751728
 C            0.817923            4.088937            3.495349
 C            1.280652            2.943646            2.773830
 C            1.121542           -2.564254            1.250923
 C           -0.001530           -1.910110            0.720666
 C           -1.272198           -2.506783            0.721171
 H           -1.929046           -2.371686           -7.040571
 H           -1.640039           -0.029629           -7.785791
 H           -1.591173            1.822307           -6.130821
 H           -2.171009           -2.893219           -4.616021
 H           -2.282796           -2.167505           -2.301854
 H           -1.563238            3.190209           -4.849023
 H           -1.525953            4.992268           -3.145642
 H           -1.649907            5.701512           -0.769724
 H           -1.882268            5.119425            1.634481
 H           -2.152718            2.766312            2.337760
 H           -2.366194            0.370136            1.775550
 H           -4.776535           -0.750125           -0.626419
 H           -6.990013           -1.892662           -0.581394
 H           -7.205039           -4.194244            0.266139
 H           -5.205992           -5.431337            1.105915
 H           -2.796337           -5.476345            1.600586
 H           -0.402400           -5.519758            2.137548
 H            1.976243           -5.560692            2.736721
 H            4.352438           -5.604397            3.371475
 H            6.572650           -4.467416            3.470377
 H            6.851792           -2.184931            2.589502
 H            4.933319           -0.965242            1.573888
 H            3.434327           -1.378966           -1.118991
 H            3.714406            4.289290           -2.911863
 H            4.443459            2.227036           -4.086562
 H            4.170451            0.011622           -3.023682
 H            2.691929            5.381343           -0.930110
 H            1.678493            5.209887            1.327302
 H            1.502870           -0.467246            3.183812
 H            0.520125            0.573484            5.146466
 H           -0.260068            2.605772            6.359118
 H           -0.069668            4.834589            5.301273
 H            0.902887            5.070701            3.026662
 H            0.114748           -0.903825            0.302217

