96

 C           -1.775521            7.174298           -0.188303
 C           -1.976295            6.656275            1.104526
 C           -2.132005            5.285029            1.297865
 C           -2.084109            4.403363            0.173841
 C           -1.884361            4.935091           -1.125265
 C           -1.731148            6.332530           -1.288520
 C           -1.835821            4.025794           -2.245909
 C           -1.975697            2.684897           -2.066201
 C           -2.177023            2.115471           -0.753745
 C           -2.229123            2.978331            0.353671
 C           -2.422563            2.447696            1.682681
 C           -2.547660            1.088881            1.866919
 C           -2.489666            0.189633            0.757881
 C           -2.588453           -1.222150            0.963069
 C           -2.512779           -2.091228           -0.102000
 C           -2.531258           -3.559937            0.109500
 C           -3.692316           -4.296656           -0.036485
 C           -4.962367           -3.686986           -0.406339
 C           -6.083718           -4.432644           -0.552885
 C           -6.051032           -5.865853           -0.346306
 C           -4.899786           -6.485222            0.008227
 C           -3.665243           -5.732985            0.189260
 C           -2.496684           -6.353822            0.568470
 C           -1.282302           -5.613057            0.731186
 C           -0.087804           -6.234539            1.128234
 C            1.102192           -5.503624            1.273241
 C            2.319581           -6.126378            1.697075
 C            3.482572           -5.401751            1.829842
 C            4.721767           -6.029606            2.269103
 C            5.865995           -5.314129            2.385935
 C            5.884946           -3.899039            2.078357
 C            4.758445           -3.264075            1.674579
 C            3.497939           -3.979075            1.529358
 C            2.333621           -3.353771            1.121605
 C            2.302004           -1.905624            0.799387
 C            1.798512           -0.990378            1.774626
 C            1.689267            0.343355            1.474775
 C            2.081537            0.850119            0.195853
 C            2.610312           -0.057181           -0.758802
 C            2.707225           -1.446400           -0.433140
 C            3.035539            0.417712           -2.037457
 C            2.943496            1.752775           -2.361717
 C            3.390979            2.260993           -3.655775
 C            3.306716            3.570518           -3.971146
 C            2.753954            4.544117           -3.035526
 C            2.298557            4.084625           -1.761004
 C            1.749722            5.010277           -0.838088
 C            1.664235            6.377750           -1.192378
 C            2.114614            6.809154           -2.430040
 C            2.658693            5.897507           -3.353674
 C            1.287581            4.522736            0.440057
 C            1.388981            3.206163            0.765831
 C            1.958155            2.243779           -0.148998
 C            2.394587            2.688142           -1.408292
 C            1.103006           -4.093776            0.991448
 C           -0.094367           -3.476564            0.598772
 C           -1.291727           -4.197754            0.478457
 C           -2.365801           -1.585107           -1.429728
 C           -2.269906           -0.233887           -1.644333
 C           -2.314496            0.694548           -0.556977
 C           -2.478135            3.383057            2.803086
 C           -2.342586            4.713840            2.623675
 H           -1.657040            8.249642           -0.317291
 H           -2.011635            7.337862            1.952472
 H           -1.572053            6.738752           -2.286491
 H           -1.677340            4.446219           -3.238946
 H           -1.931759            2.002171           -2.917559
 H           -2.692630            0.674293            2.863821
 H           -2.709521           -1.599071            1.978458
 H           -4.975449           -2.606033           -0.558979
 H           -7.036361           -3.982473           -0.826983
 H           -6.978443           -6.419417           -0.485259
 H           -4.857194           -7.561734            0.168529
 H           -2.472788           -7.427479            0.751782
 H           -0.084354           -7.305110            1.328912
 H            2.302835           -7.193500            1.915904
 H            4.688996           -7.093682            2.499259
 H            6.797340           -5.774543            2.712505
 H            6.830637           -3.370181            2.184413
 H            4.759870           -2.196488            1.445678
 H            1.498724           -1.375513            2.748658
 H            1.293097            1.043562            2.213496
 H            3.096012           -2.136323           -1.181697
 H            3.436911           -0.301002           -2.750716
 H            3.800932            1.533144           -4.356087
 H            3.648741            3.945322           -4.935880
 H            1.236005            7.085492           -0.483767
 H            2.050610            7.862897           -2.698922
 H            3.004882            6.259950           -4.319684
 H            0.842587            5.240304            1.130524
 H            1.027148            2.843229            1.730416
 H           -0.094636           -2.402949            0.380166
 H           -2.321087           -2.292150           -2.257578
 H           -2.148789            0.154958           -2.657668
 H           -2.638439            2.957105            3.793689
 H           -2.389181            5.407787            3.463165

