80

 C           -2.354306            5.811590           -2.685546
 C           -1.837699            5.072077           -3.806028
 C           -1.705709            3.717762           -3.740667
 C           -2.077693            2.997046           -2.544402
 C           -1.936721            1.605113           -2.449521
 C           -2.292339            0.926367           -1.275170
 C           -2.133425           -0.502862           -1.152527
 C           -2.476603           -1.144708            0.003504
 C           -2.307934           -2.611534            0.146232
 C           -3.355804           -3.469249           -0.139763
 C           -4.657599           -2.988839           -0.583366
 C           -5.666677           -3.847343           -0.865675
 C           -5.477813           -5.277145           -0.733829
 C           -4.289550           -5.780754           -0.322375
 C           -3.170639           -4.904067           -0.003343
 C           -1.959852           -5.406852            0.414816
 C           -0.862315           -4.539997            0.720089
 C            0.373474           -5.051260            1.144588
 C            1.452945           -4.202185            1.433180
 C            2.715113           -4.724009            1.861297
 C            3.774344           -3.890238            2.138829
 C            5.062986           -4.414486            2.570767
 C            6.101681           -3.586584            2.836871
 C            5.955336           -2.152414            2.699348
 C            4.778299           -1.613995            2.299453
 C            3.625879           -2.451890            1.996544
 C            2.416343           -1.924666            1.578165
 C            2.256304           -0.460724            1.400358
 C            2.457265            0.124806            0.182391
 C            2.293103            1.548638            0.014784
 C            2.486441            2.166749           -1.229006
 C            2.305469            3.549071           -1.378765
 C            2.488856            4.204468           -2.653858
 C            2.295689            5.547073           -2.779673
 C            1.908530            6.340075           -1.643556
 C            1.730960            5.760804           -0.423446
 C            1.923187            4.339512           -0.246184
 C            1.740234            3.722391            0.999897
 C            1.917315            2.339847            1.148863
 C            1.723191            1.681621            2.421134
 C            1.883361            0.335693            2.544897
 C            1.292233           -2.779804            1.291751
 C            0.050548           -2.272338            0.876394
 C           -1.031301           -3.117984            0.583792
 C           -3.014499           -0.406026            1.121200
 C           -3.179917            0.942158            1.036983
 C           -2.819022            1.661748           -0.163705
 C           -2.964230            3.052543           -0.260037
 C           -2.596790            3.733289           -1.429963
 C           -2.722450            5.168497           -1.542436
 H           -2.439851            6.892683           -2.779571
 H           -1.556278            5.625470           -4.700173
 H           -1.315645            3.145307           -4.580843
 H           -1.541095            1.044469           -3.295867
 H           -1.728917           -1.051605           -2.002874
 H           -4.788106           -1.909273           -0.679878
 H           -6.641255           -3.493188           -1.197994
 H           -6.319475           -5.923562           -0.977043
 H           -4.129016           -6.852829           -0.217718
 H           -1.810857           -6.480793            0.519607
 H            0.498199           -6.128358            1.250035
 H            2.817884           -5.803926            1.960051
 H            5.154662           -5.495302            2.668149
 H            7.069539           -3.968375            3.157763
 H            6.819553           -1.530201            2.926749
 H            4.656424           -0.534493            2.191609
 H            2.740515           -0.467661           -0.687452
 H            2.775685            1.564401           -2.089569
 H            2.781583            3.591811           -3.505116
 H            2.426646            6.050449           -3.735928
 H            1.761970            7.408756           -1.789587
 H            1.437250            6.348043            0.445156
 H            1.452050            4.324799            1.860692
 H            1.441732            2.296736            3.275143
 H            1.736177           -0.173091            3.497215
 H           -0.076811           -1.188858            0.777283
 H           -3.278422           -0.959904            2.021795
 H           -3.584758            1.513794            1.871378
 H           -3.362437            3.612841            0.585131
 H           -3.114948            5.714877           -0.686328

