100

 C            3.377898            8.267687            2.854127
 C            2.781633            7.615639            1.828084
 C            3.000590            6.190963            1.611771
 C            2.395088            5.520641            0.574863
 C            2.601078            4.111402            0.400014
 N            1.978436            3.458035           -0.617653
 C            2.165816            2.114867           -0.718072
 C            1.493987            1.376020           -1.749034
 C            1.643416            0.012370           -1.839055
 C            0.940285           -0.764808           -2.852463
 C            1.039776           -2.113052           -2.899861
 C            1.863164           -2.827406           -1.935809
 C            1.829828           -4.310166           -1.949416
 C            2.564755           -5.051015           -2.856118
 C            3.400770           -4.432809           -3.876283
 C            4.106173           -5.182975           -4.756441
 C            4.052090           -6.629579           -4.705980
 C            3.295269           -7.258759           -3.775468
 C            2.517348           -6.503974           -2.801757
 C            1.756622           -7.137898           -1.845749
 C            0.980240           -6.393476           -0.900294
 C            0.206053           -7.030534            0.082379
 C           -0.565213           -6.293800            0.995750
 C           -1.334618           -6.934027            2.019431
 C           -2.082073           -6.201685            2.913975
 C           -2.851100           -6.848364            3.968917
 C           -3.585421           -6.122335            4.845502
 C           -3.623330           -4.677187            4.755790
 C           -2.928111           -4.025352            3.793013
 C           -2.120025           -4.750636            2.822114
 C           -1.396528           -4.110148            1.832910
 C           -1.422696           -2.633985            1.684098
 C           -0.425819           -1.860690            2.410488
 C           -0.354489           -0.518160            2.261626
 C           -1.269187            0.196419            1.379301
 C           -1.187568            1.558456            1.213627
 C           -2.090484            2.239934            0.329396
 N           -1.994556            3.586598            0.170836
 C           -2.852878            4.186398           -0.698736
 C           -2.770164            5.601070           -0.921585
 C           -3.618831            6.218493           -1.810830
 C           -3.537199            7.649958           -2.072344
 C           -4.372441            8.249283           -2.953853
 C           -5.381770            7.482274           -3.657081
 C           -5.505208            6.149458           -3.452137
 C           -4.626934            5.445536           -2.526350
 C           -4.733511            4.088534           -2.328780
 C           -3.851956            3.414341           -1.420732
 N           -3.957760            2.067842           -1.250282
 C           -3.092281            1.467115           -0.390232
 C           -3.158387            0.048438           -0.187694
 C           -2.279228           -0.576770            0.664950
 C           -2.313363           -2.018121            0.864329
 C           -0.582879           -4.859084            0.907679
 C            0.200506           -4.226966           -0.069812
 C            0.997006           -4.957457           -0.964632
 C            2.587090           -2.148485           -1.007247
 C            2.503147           -0.700291           -0.900977
 C            3.177561           -0.015750            0.083196
 C            3.023636            1.403419            0.217414
 N            3.663814            2.060436            1.222583
 C            3.463402            3.401780            1.332874
 C            4.100269            4.133066            2.389568
 C            3.879717            5.482617            2.535008
 C            4.504692            6.242625            3.610270
 C            4.263057            7.566119            3.763297
 H            3.214120            9.330633            3.028220
 H            2.116529            8.130072            1.134596
 H            1.734716            6.026406           -0.133797
 H            0.855843            1.934054           -2.439301
 H            0.321280           -0.215050           -3.563180
 H            0.508600           -2.705126           -3.645890
 H            3.435963           -3.342473           -3.905345
 H            4.730518           -4.725978           -5.523042
 H            4.637087           -7.184794           -5.437718
 H            3.241278           -8.345674           -3.725241
 H            1.728396           -8.225884           -1.790861
 H            0.204798           -8.118737            0.138526
 H           -1.310615           -8.021934            2.076715
 H           -2.808884           -7.935475            4.024558
 H           -4.163571           -6.596567            5.637206
 H           -4.226463           -4.139659            5.486232
 H           -2.948944           -2.936753            3.717516
 H            0.254771           -2.405310            3.065795
 H            0.393228            0.074088            2.792265
 H           -0.439108            2.160549            1.735840
 H           -2.009102            6.156905           -0.369018
 H           -2.776243            8.214361           -1.533532
 H           -4.314133            9.317319           -3.160963
 H           -6.031281            8.016036           -4.350059
 H           -6.261005            5.559654           -3.970853
 H           -5.479942            3.486647           -2.852107
 H           -3.923607           -0.506453           -0.735717
 H           -3.069868           -2.585401            0.320224
 H            0.189283           -3.133972           -0.133610
 H            3.227225           -2.671625           -0.295115
 H            3.834171           -0.524489            0.792937
 H            4.754252            3.579487            3.067200
 H            5.169948            5.701964            4.283631
 H            4.722254            8.141392            4.566667

