100

 C            2.653645           -1.158042           -5.002581
 C            2.713590           -2.313852           -4.131229
 C            2.640007           -2.170880           -2.786675
 C            2.502117           -0.857375           -2.170404
 C            2.450359            0.303947           -3.047848
 C            2.528089            0.087789           -4.486887
 C            2.324611            1.571027           -2.527425
 C            2.244362            1.770243           -1.111933
 N            2.134543            3.035523           -0.617770
 C            2.057852            3.187691            0.730151
 C            1.952008            4.500184            1.300963
 C            1.885676            4.664159            2.664097
 C            1.791406            5.988435            3.266779
 C            1.723355            6.142590            4.610027
 C            1.743302            4.990748            5.490776
 C            1.833468            3.737033            4.988031
 C            1.911018            3.505754            3.550839
 C            2.008550            2.236233            3.034167
 C            2.090739            2.032962            1.615265
 N            2.205793            0.773136            1.122551
 C            2.285320            0.617493           -0.226997
 C            2.413631           -0.702843           -0.798192
 C            2.418919           -1.868090            0.122224
 C            3.582424           -2.273046            0.752656
 C            4.861931           -1.613001            0.531894
 C            5.988024           -2.031889            1.157922
 C            5.950807           -3.154840            2.071244
 C            4.787660           -3.803786            2.318488
 C            3.545388           -3.395836            1.675529
 C            2.357633           -4.043033            1.931073
 C            1.140421           -3.639995            1.294087
 C           -0.078691           -4.279918            1.566436
 C           -1.268424           -3.886677            0.932842
 C           -2.518519           -4.514640            1.234890
 C           -3.683683           -4.117845            0.618405
 C           -4.961471           -4.740799            0.937805
 C           -6.103835           -4.352435            0.322093
 C           -6.082527           -3.300891           -0.672793
 C           -4.920895           -2.688246           -1.006073
 C           -3.659987           -3.062728           -0.380790
 C           -2.458826           -2.453781           -0.704907
 C           -2.396416           -1.410552           -1.760271
 C           -2.304938           -0.025941           -1.362006
 N           -2.295508            0.305838           -0.040640
 C           -2.163891            1.614757            0.288903
 C           -2.126751            2.000029            1.672143
 C           -1.980743            3.319824            2.023506
 C           -1.940482            3.734013            3.420773
 C           -1.795647            5.036211            3.760229
 C           -1.672913            6.058820            2.738913
 C           -1.701809            5.733438            1.425252
 C           -1.860577            4.349328            0.995467
 C           -1.897902            4.012678           -0.336205
 C           -2.051394            2.642733           -0.737179
 N           -2.086185            2.318412           -2.054653
 C           -2.206402            1.000379           -2.385024
 C           -2.224981            0.621052           -3.764260
 C           -2.316486           -0.704605           -4.121491
 C           -2.325848           -1.102136           -5.523373
 C           -2.405523           -2.405445           -5.881839
 C           -2.482612           -3.442019           -4.873450
 C           -2.478218           -3.127475           -3.555955
 C           -2.399581           -1.743703           -3.105056
 C           -1.235404           -2.826202           -0.038118
 C           -0.015925           -2.180730           -0.296543
 C            1.170063           -2.550529            0.356184
 H            2.710921           -1.329229           -6.076814
 H            2.817284           -3.294096           -4.594896
 H            2.680042           -3.035877           -2.120264
 H            2.477792            0.968764           -5.126594
 H            2.277443            2.455346           -3.167720
 H            1.927323            5.349581            0.615100
 H            1.779880            6.843780            2.591440
 H            1.655600            7.127754            5.069484
 H            1.686898            5.173234            6.563005
 H            1.854625            2.860775            5.636341
 H            2.029147            1.348975            3.672333
 H            4.878296           -0.764193           -0.153092
 H            6.945671           -1.539931            0.997825
 H            6.884032           -3.451571            2.547415
 H            4.741760           -4.647442            3.005352
 H            2.319050           -4.876181            2.631489
 H           -0.103766           -5.092385            2.291109
 H           -2.527086           -5.312124            1.976840
 H           -4.960226           -5.526277            1.692089
 H           -7.063746           -4.810673            0.554743
 H           -7.027345           -3.020493           -1.134822
 H           -4.897733           -1.888934           -1.748437
 H           -2.211988            1.205692            2.418571
 H           -2.030506            2.952465            4.175476
 H           -1.762992            5.354938            4.801145
 H           -1.556269            7.089809            3.069977
 H           -1.608104            6.489702            0.646183
 H           -1.805394            4.762734           -1.124895
 H           -2.157313            1.415712           -4.510776
 H           -2.265009           -0.307945           -6.267205
 H           -2.413604           -2.711980           -6.927163
 H           -2.543657           -4.475603           -5.211773
 H           -2.533784           -3.903948           -2.789051
 H            0.008640           -1.358634           -1.016655

