102

 C            3.527822            4.175520            4.639385
 C            3.179901            4.533426            3.372612
 C            2.884485            3.503484            2.419306
 C            2.518607            3.518081            1.082067
 C            2.276763            4.559589            0.097390
 C            3.112606            5.689724            0.061958
 C            2.869250            6.702385           -0.867647
 C            1.798216            6.594908           -1.761659
 C            0.969479            5.468837           -1.729904
 C            1.206169            4.448854           -0.805748
 O            2.339482            2.207173            0.627195
 C            2.602624            1.350461            1.709871
 C            2.501798           -0.065703            1.408981
 C            2.166211           -0.978968            2.424174
 C            2.110806           -2.344402            2.146258
 C            2.385108           -2.812428            0.851760
 C            2.353182           -4.269214            0.573588
 C            3.450384           -5.060429            0.870343
 C            4.679086           -4.515508            1.433389
 C            5.738225           -5.311181            1.717136
 C            5.681139           -6.736260            1.466370
 C            4.565849           -7.298160            0.942327
 C            3.396990           -6.491012            0.618854
 C            2.259151           -7.056762            0.091034
 C            1.114422           -6.259318           -0.228887
 C           -0.047097           -6.835811           -0.764254
 C           -1.170640           -6.055831           -1.078340
 C           -2.357956           -6.648738           -1.613732
 C           -3.461635           -5.884963           -1.917868
 C           -4.674901           -6.485586           -2.455941
 C           -5.758289           -5.728727           -2.752697
 C           -5.735337           -4.296838           -2.538634
 C           -4.631992           -3.689124           -2.039766
 C           -3.433577           -4.447525           -1.705153
 C           -2.292281           -3.849939           -1.195236
 C           -2.245687           -2.381863           -0.989926
 C           -2.097653           -1.525258           -2.092355
 C           -2.078224           -0.143381           -1.906715
 C           -2.199959            0.395777           -0.614055
 C           -2.191153            1.833409           -0.408876
 C           -1.707723            2.685018            0.572036
 C           -0.943872            2.480768            1.769411
 C           -0.601869            3.562559            2.521909
 C           -0.989010            4.904463            2.139804
 C           -1.703904            5.146659            1.006493
 C           -2.086423            4.038187            0.179066
 C           -2.769076            3.929409           -1.022727
 C           -3.408497            4.854910           -1.940825
 C           -3.469667            4.560861           -3.315110
 C           -4.087020            5.453451           -4.192565
 C           -4.648311            6.640222           -3.709168
 C           -4.591366            6.933849           -2.342897
 C           -3.976099            6.046852           -1.456879
 O           -2.834639            2.579773           -1.406214
 C           -2.342454           -0.463569            0.490031
 C           -2.365143           -1.845052            0.301478
 C           -1.130816           -4.634751           -0.857764
 C            0.035517           -4.062847           -0.323052
 C            1.157647           -4.840539            0.005376
 C            2.699705           -1.901424           -0.168300
 C            2.755934           -0.535739            0.107208
 C            2.940139            2.103358            2.824756
 C            3.321372            1.775844            4.168829
 C            3.607031            2.785683            5.036933
 H            3.760114            4.926043            5.393019
 H            3.114229            5.571791            3.055249
 H            3.951046            5.768438            0.752661
 H            3.516294            7.577636           -0.897000
 H            1.609151            7.389485           -2.481483
 H            0.131923            5.387269           -2.422412
 H            0.555970            3.571538           -0.768793
 H            1.946049           -0.619020            3.428646
 H            1.855056           -3.052905            2.934145
 H            4.716247           -3.439853            1.615934
 H            6.658188           -4.907684            2.137491
 H            6.560285           -7.330032            1.711903
 H            4.505038           -8.367620            0.745249
 H            2.207453           -8.129245           -0.094334
 H           -0.077634           -7.910847           -0.938902
 H           -2.367896           -7.726389           -1.774232
 H           -4.674466           -7.564156           -2.607742
 H           -6.670666           -6.166752           -3.154406
 H           -6.632223           -3.732570           -2.789870
 H           -4.611402           -2.610715           -1.870219
 H           -1.999782           -1.944676           -3.093846
 H           -1.971846            0.525002           -2.761519
 H           -0.641481            1.468921            2.031530
 H           -0.008800            3.451464            3.430194
 H           -0.675053            5.719093            2.791122
 H           -1.985232            6.150908            0.698589
 H           -3.037651            3.631199           -3.685408
 H           -4.132822            5.224005           -5.256214
 H           -5.132741            7.332501           -4.395447
 H           -5.033746            7.855340           -1.966437
 H           -3.947037            6.270909           -0.391118
 H           -2.448022           -0.047817            1.492298
 H           -2.482384           -2.511993            1.155907
 H            0.072621           -2.981234           -0.157805
 H            2.905407           -2.265642           -1.174913
 H            3.000857            0.176221           -0.683092
 H            3.382925            0.728419            4.454855
 H            3.909100            2.576426            6.062067

