102

 C            0.661674            3.307278           -2.769866
 C            1.524580            3.957655           -1.941241
 C            2.070380            3.251020           -0.818206
 C            2.930122            3.606440            0.210097
 C            3.662785            4.806926            0.572470
 C            3.920329            5.104473            1.922579
 C            4.621249            6.263998            2.258823
 C            5.069304            7.131279            1.256894
 C            4.818083            6.835111           -0.086796
 C            4.119734            5.676958           -0.433709
 O            3.108994            2.514903            1.073833
 C            2.355623            1.449779            0.556302
 C            2.458195            0.205079            1.298982
 C            2.595560            0.216819            2.698120
 C            2.699591           -0.988006            3.396188
 C            2.674434           -2.206671            2.713074
 C            2.545150           -2.220453            1.315712
 C            2.548295           -3.511198            0.582618
 C            3.745367           -4.107857            0.224991
 C            5.038164           -3.510158            0.531985
 C            6.196754           -4.113834            0.173874
 C            6.183746           -5.380390           -0.527934
 C            5.011343           -5.980674           -0.843726
 C            3.735155           -5.373926           -0.488765
 C            2.539540           -5.971149           -0.817334
 C            1.288578           -5.368984           -0.468601
 C            0.067528           -5.968428           -0.814944
 C           -1.158372           -5.375718           -0.475147
 C           -2.404909           -5.980367           -0.835517
 C           -3.604930           -5.394275           -0.503185
 C           -4.875378           -6.004784           -0.871521
 C           -6.053088           -5.421534           -0.543997
 C           -6.077349           -4.170364            0.185069
 C           -4.924305           -3.562225            0.553985
 C           -3.626249           -4.138948            0.230124
 C           -2.434207           -3.537036            0.592118
 C           -2.419644           -2.259302            1.346809
 C           -2.358436           -2.277233            2.748787
 C           -2.302450           -1.074305            3.457376
 C           -2.307741            0.146488            2.779757
 C           -2.374620            0.166086            1.375179
 C           -2.373865            1.438929            0.674388
 C           -1.760804            2.666793            0.870066
 C           -0.822820            3.161868            1.836495
 C           -0.385566            4.446787            1.727483
 C           -0.841997            5.315635            0.663220
 C           -1.724271            4.885194           -0.280359
 C           -2.215077            3.539163           -0.206809
 C           -3.075102            2.788818           -0.994661
 C           -3.866241            3.037155           -2.187032
 C           -4.368360            4.326526           -2.438799
 C           -5.125848            4.565886           -3.587064
 C           -5.390692            3.527983           -4.486374
 C           -4.896005            2.243716           -4.235728
 C           -4.135759            1.994537           -3.091810
 O           -3.176743            1.489183           -0.474699
 C           -2.436382           -1.039842            0.658032
 C           -1.166570           -4.133164            0.249110
 C            0.057487           -3.538770            0.595137
 C            1.286529           -4.122107            0.248748
 C            2.431990           -1.017496            0.607024
 C            1.695852            1.859737           -0.591916
 C            0.775457            1.219324           -1.487137
 C            0.281855            1.929430           -2.538878
 H            0.221641            3.809516           -3.630093
 H            1.807076            4.996390           -2.092627
 H            3.572632            4.422847            2.698444
 H            4.820548            6.492930            3.304516
 H            5.616203            8.034269            1.522342
 H            5.172697            7.507266           -0.866913
 H            3.939111            5.440060           -1.481736
 H            2.622324            1.168227            3.228711
 H            2.803784           -0.978181            4.480681
 H            2.758473           -3.145894            3.258861
 H            5.038770           -2.553486            1.057866
 H            7.164611           -3.668373            0.399222
 H            7.142977           -5.824545           -0.789343
 H            4.983224           -6.932243           -1.372979
 H            2.522034           -6.919224           -1.353799
 H            0.071907           -6.911701           -1.360507
 H           -2.380646           -6.921195           -1.384349
 H           -4.838272           -6.945864           -1.418733
 H           -7.008117           -5.869076           -0.814795
 H           -7.049762           -3.741069            0.421817
 H           -4.932886           -2.619252            1.103772
 H           -2.351882           -3.228975            3.279031
 H           -2.253618           -1.089047            4.545878
 H           -2.268999            1.082681            3.335722
 H           -0.473884            2.490579            2.617638
 H            0.334457            4.857838            2.433356
 H           -0.442509            6.328318            0.639150
 H           -2.061223            5.519813           -1.096143
 H           -4.174875            5.133760           -1.733193
 H           -5.515368            5.564414           -3.779924
 H           -5.983142            3.719047           -5.379307
 H           -5.104505            1.434970           -4.934578
 H           -3.749694            0.994858           -2.891217
 H           -2.492959           -1.022612           -0.431116
 H            0.054825           -2.593898            1.147864
 H            2.338084           -1.032133           -0.479525
 H            0.486897            0.188756           -1.291617
 H           -0.425283            1.482672           -3.236076

