96

 C            6.556559           -3.127243            7.195444
 C            6.887026           -3.933229            6.031473
 C            6.483177           -3.579070            4.790871
 C            5.703249           -2.360650            4.590204
 N            5.319391           -2.006821            3.370959
 C            4.583924           -0.826817            3.230469
 C            4.185700           -0.420482            1.948030
 C            3.472294            0.780239            1.801611
 N            3.131360            1.212525            0.519237
 C            2.488278            2.365204            0.392813
 C            2.097637            3.156579            1.583212
 N            2.410859            2.763953            2.812415
 C            3.125025            1.573944            2.963013
 C            3.515254            1.161787            4.247184
 C            4.248572           -0.025330            4.391718
 N            4.661349           -0.420757            5.667541
 C            5.364605           -1.540352            5.776643
 C            5.831487           -1.991480            7.084798
 C            1.361202            4.400560            1.388528
 C            1.082811            4.834707            0.139042
 C            1.499040            4.089098           -1.031877
 C            2.164834            2.908012           -0.936521
 C            2.589218            2.168094           -2.149690
 C            3.929938            2.091804           -2.493973
 C            4.982254            2.741081           -1.721918
 C            6.287162            2.627856           -2.068743
 C            6.681738            1.858277           -3.229928
 C            5.746997            1.252267           -3.999717
 C            4.329013            1.351969           -3.680462
 C            3.376697            0.767249           -4.482376
 C            1.983416            0.872370           -4.173580
 C            1.012378            0.320916           -5.022570
 C           -0.357102            0.449832           -4.745676
 C           -1.343640           -0.079560           -5.636504
 C           -2.687172            0.082356           -5.387860
 C           -3.692845           -0.444846           -6.300386
 C           -5.014203           -0.259664           -6.068211
 C           -5.457778            0.471927           -4.900100
 C           -4.562899            0.974871           -4.015587
 C           -3.128362            0.797563           -4.201518
 C           -2.190413            1.291492           -3.308557
 C           -2.623858            2.025488           -2.094833
 C           -2.497268            3.375430           -2.007190
 C           -2.926914            4.112820           -0.835617
 C           -3.491097            3.489687            0.223144
 C           -3.677830            2.043006            0.207116
 N           -4.258732            1.443439            1.239593
 C           -4.423712            0.058027            1.190596
 C           -5.060355           -0.598332            2.255993
 C           -5.230105           -1.989666            2.199658
 N           -5.874970           -2.641065            3.255208
 C           -6.028367           -3.956410            3.176070
 C           -6.699294           -4.684766            4.249372
 C           -6.860911           -6.024523            4.166737
 C           -6.375989           -6.778364            3.022109
 C           -5.743388           -6.169998            1.993809
 C           -5.534266           -4.724606            2.009500
 N           -4.919025           -4.127922            0.997276
 C           -4.747286           -2.742291            1.057898
 C           -4.107128           -2.087533           -0.005095
 C           -3.948237           -0.693161            0.046369
 N           -3.342996           -0.040904           -1.028834
 C           -3.215518            1.277743           -0.974303
 C           -0.776880            1.135118           -3.552785
 C            0.203372            1.644408           -2.684727
 C            1.574077            1.563989           -2.980218
 H            6.916886           -3.477925            8.163981
 H            7.474070           -4.837625            6.200056
 H            6.714121           -4.169570            3.901218
 H            4.436348           -1.026055            1.069190
 H            3.256062            1.764583            5.124375
 H            5.567431           -1.371233            7.944497
 H            1.062100            4.944053            2.287881
 H            0.537272            5.764805           -0.029136
 H            1.257919            4.514003           -2.009116
 H            4.684759            3.322262           -0.849021
 H            7.073822            3.107338           -1.487828
 H            7.744470            1.787646           -3.456264
 H            6.021995            0.670354           -4.878617
 H            3.666548            0.213704           -5.375572
 H            1.327729           -0.212485           -5.919471
 H           -1.003736           -0.613245           -6.524113
 H           -3.338835           -0.993214           -7.172582
 H           -5.774781           -0.650067           -6.742529
 H           -6.530189            0.598965           -4.759061
 H           -4.894785            1.524528           -3.134551
 H           -2.065356            3.948441           -2.830881
 H           -2.780050            5.194147           -0.844421
 H           -3.827160            4.021365            1.116442
 H           -5.422787           -0.029583            3.119246
 H           -7.052830           -4.096800            5.099553
 H           -7.361067           -6.585234            4.958105
 H           -6.543075           -7.856764            3.026759
 H           -5.367485           -6.713813            1.124075
 H           -3.739474           -2.655163           -0.868005
 H           -0.111675            2.114534           -1.750608

