100

 C            3.491029            4.659104            5.192550
 C            3.978954            3.325950            5.491859
 C            3.883545            2.326531            4.585154
 C            3.280319            2.569403            3.275152
 N            3.199565            1.559701            2.411286
 C            2.623659            1.784968            1.162762
 C            2.530601            0.702797            0.265747
 C            1.974120            0.880280           -1.005654
 C            1.498585            2.189067           -1.391601
 C            1.578715            3.267284           -0.493275
 C            2.129768            3.086306            0.781129
 C            2.229002            4.147647            1.739757
 C            2.791237            3.916526            2.972898
 C            2.925681            4.941572            3.994434
 N            0.944572            2.427088           -2.648844
 C            0.843275            1.419056           -3.511418
 C            0.246895            1.681458           -4.820467
 C            0.117627            0.686406           -5.727401
 C            0.567148           -0.659992           -5.428860
 C            1.124423           -0.959118           -4.231418
 C            1.292322            0.058299           -3.206785
 C            1.841233           -0.192010           -1.964897
 C            2.278630           -1.552331           -1.561609
 C            3.586906           -1.964213           -1.741656
 C            4.582909           -1.135325           -2.407078
 C            5.856263           -1.565583           -2.575002
 C            6.268658           -2.866724           -2.089802
 C            5.386975           -3.676604           -1.456471
 C            4.004933           -3.266343           -1.246342
 C            3.109553           -4.072308           -0.581129
 C            1.746521           -3.673378           -0.395579
 C            0.833061           -4.480212            0.299667
 C           -0.509237           -4.097192            0.452490
 C           -1.430794           -4.890624            1.207543
 C           -2.747555           -4.514878            1.348307
 C           -3.681611           -5.302805            2.141020
 C           -4.981382           -4.939570            2.256358
 C           -5.475867           -3.754037            1.587657
 C           -4.647604           -2.981800            0.843978
 C           -3.238059           -3.314934            0.690060
 C           -2.367211           -2.537683           -0.054682
 C           -2.858984           -1.348638           -0.796271
 C           -3.464490           -1.489130           -2.031559
 C           -3.664542           -2.769871           -2.689708
 C           -4.262278           -2.849157           -3.902604
 C           -4.725868           -1.656918           -4.585054
 C           -4.571202           -0.433111           -4.029908
 C           -3.929423           -0.286315           -2.724246
 N           -3.794932            0.938378           -2.220437
 C           -3.174556            1.095647           -0.982708
 C           -3.023761            2.402989           -0.485453
 C           -2.397079            2.621658            0.746063
 C           -2.203658            3.932721            1.294943
 C           -1.562241            4.091191            2.499915
 C           -1.324685            5.386352            3.115159
 C           -0.678066            5.483789            4.301411
 C           -0.203817            4.299720            4.993706
 C           -0.399877            3.064091            4.480141
 C           -1.093954            2.893909            3.203939
 N           -1.270631            1.662441            2.732290
 C           -1.912100            1.494068            1.506356
 C           -2.071438            0.185965            1.012166
 C           -2.689638           -0.034804           -0.224388
 C           -0.970413           -2.879009           -0.156850
 C           -0.045391           -2.058701           -0.822040
 C            1.307795           -2.413081           -0.931667
 H            3.599752            5.418766            5.965321
 H            4.424886            3.161571            6.472796
 H            4.241530            1.313828            4.781565
 H            2.898219           -0.278651            0.584905
 H            1.203498            4.244334           -0.804792
 H            1.847300            5.132248            1.467056
 H            2.552002            5.937197            3.756885
 H           -0.087347            2.703085           -5.011845
 H           -0.329286            0.864148           -6.705671
 H            0.436632           -1.417201           -6.200653
 H            1.464173           -1.969294           -3.993970
 H            4.263903           -0.155559           -2.767293
 H            6.604128           -0.950953           -3.074673
 H            7.304370           -3.162866           -2.250867
 H            5.680204           -4.657193           -1.083152
 H            3.423504           -5.035970           -0.179726
 H            1.172978           -5.419801            0.735000
 H           -1.060871           -5.800965            1.679680
 H           -3.291448           -6.190025            2.638654
 H           -5.687253           -5.518554            2.850345
 H           -6.530345           -3.507595            1.706318
 H           -5.011831           -2.083398            0.342174
 H           -3.313145           -3.662637           -2.167913
 H           -4.412067           -3.805887           -4.400877
 H           -5.201428           -1.784393           -5.557620
 H           -4.906597            0.483928           -4.517982
 H           -3.393544            3.240790           -1.081476
 H           -2.574811            4.790401            0.732386
 H           -1.688726            6.266744            2.586579
 H           -0.496071            6.448051            4.773901
 H            0.319664            4.444013            5.939022
 H           -0.051577            2.155080            4.976082
 H           -1.695280           -0.653353            1.607527
 H           -0.387151           -1.115950           -1.260720

