102

 C            4.381264            5.915645            3.767133
 C            3.754891            5.555649            5.024986
 C            3.086314            4.387688            5.164816
 C            2.985098            3.453151            4.044944
 N            2.326227            2.308901            4.224727
 C            2.237266            1.406486            3.164897
 C            1.563311            0.189103            3.362167
 C            1.455639           -0.745999            2.322038
 C            0.780623           -1.994891            2.516671
 C            0.681812           -2.919330            1.502857
 C           -0.003820           -4.190293            1.697220
 C           -0.110222           -5.088883            0.689743
 C            0.459109           -4.808134           -0.612658
 C            1.104883           -3.641191           -0.848872
 C            1.249108           -2.634298            0.193814
 C            1.880055           -1.425040           -0.028573
 C            2.382346           -1.029572           -1.368768
 C            3.710426           -1.180419           -1.722716
 C            4.659202           -1.910083           -0.893537
 C            5.948783           -2.068032           -1.276534
 C            6.423481           -1.501820           -2.522577
 C            5.591777           -0.788869           -3.319425
 C            4.197632           -0.576951           -2.953747
 C            3.359698            0.199625           -3.721592
 C            1.975714            0.352542           -3.384887
 C            1.115749            1.182226           -4.119742
 C           -0.254602            1.256314           -3.818933
 C           -1.119584            2.190688           -4.471862
 C           -2.463824            2.241124           -4.177514
 C           -3.339250            3.232853           -4.786922
 C           -4.670780            3.238435           -4.537355
 C           -5.259410            2.253691           -3.653828
 C           -4.488102            1.316483           -3.052048
 C           -3.048672            1.269433           -3.267688
 C           -2.237271            0.328510           -2.655101
 C           -2.825780           -0.808499           -1.899984
 C           -3.338680           -1.887959           -2.605738
 C           -3.315625           -1.957731           -4.061211
 C           -3.819980           -3.024347           -4.727273
 C           -4.406095           -4.135712           -4.008560
 C           -4.454854           -4.127557           -2.655006
 C           -3.917520           -3.011080           -1.888854
 C           -3.943635           -3.010806           -0.513161
 C           -3.393955           -1.924208            0.237917
 C           -3.384079           -1.958834            1.640761
 C           -2.816631           -0.907443            2.375977
 N           -2.812534           -0.993296            3.768525
 C           -2.262370           -0.005316            4.472710
 C           -2.272798           -0.093506            5.931486
 C           -1.702945            0.879236            6.679868
 C           -1.060231            2.022787            6.060880
 C           -1.031668            2.161016            4.713661
 C           -1.643679            1.166557            3.848566
 C           -1.657843            1.263991            2.476990
 C           -2.251773            0.227358            1.684236
 C           -2.286004            0.264355            0.284647
 C           -2.832867           -0.796038           -0.459768
 C           -0.805761            0.376946           -2.822948
 C            0.069768           -0.389005           -2.038238
 C            1.455199           -0.364795           -2.252599
 C            2.024468           -0.453721            1.031736
 C            2.694754            0.765213            0.840277
 C            2.822587            1.698010            1.878668
 C            3.518806            2.939779            1.721530
 C            3.615841            3.818537            2.775646
 C            4.314342            5.089871            2.695034
 H            4.904512            6.869826            3.720321
 H            3.844611            6.260942            5.851737
 H            2.607198            4.090876            6.099322
 H            1.121633           -0.017076            4.340809
 H            0.336471           -2.191960            3.494529
 H           -0.430948           -4.381745            2.681747
 H           -0.623705           -6.039608            0.823671
 H            0.345521           -5.563805           -1.388660
 H            1.535697           -3.417657           -1.826510
 H            4.286611           -2.332062            0.042276
 H            6.660780           -2.621913           -0.666556
 H            7.465227           -1.672036           -2.791056
 H            5.933269           -0.358120           -4.259688
 H            3.730448            0.706116           -4.611759
 H            1.516962            1.782283           -4.934971
 H           -0.683361            2.874157           -5.199347
 H           -2.879535            3.969241           -5.444714
 H           -5.333711            3.976202           -4.987323
 H           -6.335435            2.295978           -3.491428
 H           -4.920420            0.572397           -2.379584
 H           -2.872034           -1.118734           -4.601201
 H           -3.799412           -3.077713           -5.814744
 H           -4.799745           -4.967039           -4.591356
 H           -4.892729           -4.953054           -2.095583
 H           -4.377131           -3.847249            0.035566
 H           -3.811065           -2.808965            2.176093
 H           -2.758425           -0.967130            6.369034
 H           -1.705159            0.831576            7.769120
 H           -0.592810            2.756180            6.716394
 H           -0.533861            3.006559            4.236787
 H           -1.210508            2.119730            1.968411
 H           -1.868532            1.128933           -0.238011
 H           -0.335493           -1.016680           -1.236720
 H            3.131288            0.997464           -0.134852
 H            3.969739            3.167212            0.754243
 H            4.780424            5.348237            1.744289

