102

 C            1.430854           -4.890410           -4.450413
 C            1.355202           -3.605920           -5.117906
 C            1.698926           -2.464631           -4.473196
 C            2.160343           -2.487355           -3.094795
 C            2.232289           -3.784341           -2.422181
 C            1.844298           -4.982482           -3.165610
 N            2.651786           -3.930667           -1.167292
 C            3.049225           -2.802886           -0.451812
 C            3.507072           -2.981370            0.864751
 C            3.949049           -1.886418            1.620388
 C            4.439444           -2.048100            2.957207
 C            4.888823           -0.970910            3.686751
 C            5.405589           -1.121889            5.040353
 C            5.847639           -0.050957            5.742237
 C            5.813120            1.278064            5.164934
 C            5.340907            1.475751            3.910704
 C            4.858536            0.362225            3.105387
 C            4.384354            0.540446            1.825058
 C            3.922682           -0.567674            1.042655
 C            3.454883           -0.393321           -0.269926
 C            3.016499           -1.482213           -1.036324
 C            2.549333           -1.358558           -2.394250
 C            2.539001           -0.022637           -3.043296
 C            3.542442            0.296837           -3.957417
 C            4.648957           -0.600968           -4.247644
 C            5.603515           -0.273538           -5.154379
 C            5.546009            0.982879           -5.866019
 C            4.541775            1.862342           -5.625694
 C            3.504388            1.564983           -4.651804
 C            2.495200            2.469231           -4.376706
 C            1.502522            2.183092           -3.399781
 C            0.554581            3.162707           -3.020976
 C           -0.372368            2.911688           -2.016532
 C           -1.126676            3.985943           -1.427352
 C           -1.700883            3.801714           -0.196844
 C           -2.267432            4.919337            0.549471
 C           -2.670072            4.767883            1.832503
 C           -2.526361            3.485679            2.491630
 C           -2.115086            2.395137            1.800128
 C           -1.787954            2.462705            0.383198
 C           -1.516968            1.356342           -0.426075
 C           -2.169187            0.048929           -0.275454
 C           -3.168410           -0.204972            0.768443
 C           -4.115080            0.719447            1.186998
 C           -5.022110            0.433101            2.241192
 C           -5.960024            1.401292            2.695029
 C           -6.811016            1.130622            3.753870
 C           -7.766707            2.111043            4.240161
 C           -8.586342            1.828731            5.284164
 C           -8.530701            0.539845            5.937263
 C           -7.658015           -0.411000            5.518654
 C           -6.756303           -0.159594            4.406891
 C           -5.861463           -1.117923            3.962711
 C           -4.986892           -0.854329            2.871823
 C           -4.120367           -1.846349            2.355658
 C           -3.278675           -1.558415            1.285185
 N           -2.625076           -2.623647            0.650642
 C           -2.100831           -2.390689           -0.544666
 C           -1.614740           -3.534960           -1.317888
 C           -1.236528           -3.379608           -2.605276
 C           -1.293004           -2.076330           -3.238758
 C           -1.604965           -0.968719           -2.524028
 C           -1.940813           -1.040555           -1.113303
 C           -0.486849            1.588017           -1.445839
 C            0.484579            0.647871           -1.776858
 C            1.500402            0.913845           -2.732588
 H            1.143875           -5.774092           -5.020524
 H            1.015280           -3.595247           -6.152252
 H            1.644158           -1.492667           -4.968239
 H            1.913007           -5.932540           -2.632045
 H            3.515849           -3.988664            1.287541
 H            4.449901           -3.052059            3.382276
 H            5.422791           -2.127247            5.460270
 H            6.239431           -0.153038            6.753397
 H            6.178370            2.103049            5.774825
 H            5.306883            2.468864            3.463966
 H            4.352590            1.534078            1.377220
 H            3.435606            0.610420           -0.702109
 H            4.691956           -1.548160           -3.706074
 H            6.436121           -0.942905           -5.368392
 H            6.330637            1.194289           -6.591202
 H            4.482678            2.815609           -6.149695
 H            2.454904            3.425876           -4.897664
 H            0.599270            4.147397           -3.486178
 H           -1.162220            4.944869           -1.940254
 H           -2.326073            5.880123            0.039322
 H           -3.084618            5.593930            2.407835
 H           -2.742319            3.434508            3.558602
 H           -1.956499            1.437727            2.305102
 H           -4.193274            1.691196            0.691387
 H           -5.993780            2.369609            2.195498
 H           -7.800055            3.075995            3.736132
 H           -9.304694            2.556417            5.658389
 H           -9.210146            0.362796            6.769664
 H           -7.605835           -1.387437            5.998999
 H           -5.815084           -2.095483            4.442404
 H           -4.146919           -2.860993            2.758357
 H           -1.606150           -4.500879           -0.808779
 H           -0.886472           -4.220274           -3.205525
 H           -1.081230           -2.024965           -4.305891
 H           -1.680897            0.007513           -3.007982
 H            0.496732           -0.321906           -1.265537

