102

 C           -2.327592            8.033288            1.026929
 C           -2.243863            7.234118           -0.063679
 C           -2.198374            5.783962            0.069013
 C           -2.110331            4.955697           -1.026827
 C           -2.090386            3.529604           -0.882331
 C           -2.022606            2.680958           -1.998623
 C           -2.039714            1.287672           -1.846036
 C           -1.992718            0.381399           -2.953562
 C           -2.035138           -0.977891           -2.744283
 C           -1.999510           -1.942218           -3.829401
 C           -2.062746           -3.271487           -3.578211
 C           -2.161214           -3.768764           -2.222627
 C           -2.189804           -2.925451           -1.157814
 C           -2.275458           -3.449883            0.227877
 C           -3.502177           -3.603130            0.851042
 C           -4.757899           -3.243120            0.207034
 C           -5.946776           -3.418364            0.833062
 C           -6.002935           -3.972610            2.169514
 C           -4.866324           -4.316366            2.821264
 C           -3.560345           -4.141268            2.199790
 C           -2.401219           -4.474487            2.862989
 C           -1.120658           -4.306782            2.246084
 C            0.064896           -4.625063            2.926073
 C            1.319548           -4.467182            2.317606
 C            2.528943           -4.773326            3.019050
 C            3.758808           -4.605336            2.424684
 C            4.992054           -4.906987            3.139493
 C            6.200765           -4.738220            2.552051
 C            6.295651           -4.249755            1.192449
 C            5.178479           -3.962915            0.481211
 C            3.849980           -4.131773            1.053880
 C            2.691427           -3.860125            0.344536
 C            2.760576           -3.473133           -1.086656
 C            2.584542           -2.064278           -1.473595
 N            2.370003           -1.148320           -0.532877
 C            2.190988            0.181694           -0.905829
 C            1.957678            1.136262            0.101541
 C            1.795536            2.488897           -0.226930
 C            1.584332            3.482911            0.785301
 C            1.455240            4.814320            0.463711
 C            1.263208            5.837058            1.483378
 C            1.146345            7.144138            1.148360
 C            1.203826            7.560230           -0.239056
 C            1.376007            6.651381           -1.228690
 C            1.514145            5.232358           -0.929010
 C            1.700721            4.294274           -1.918393
 C            1.854300            2.903378           -1.606125
 C            2.069660            1.946476           -2.609467
 C            2.243622            0.592820           -2.288008
 C            2.480786           -0.417573           -3.273451
 C            2.651227           -1.730727           -2.898445
 C            2.894688           -2.794534           -3.856002
 C            3.050460           -4.075118           -3.443663
 C            2.979737           -4.417422           -2.039866
 C            1.395155           -3.990729            0.962220
 C            0.206387           -3.665224            0.289686
 C           -1.050268           -3.802570            0.900820
 C           -2.127823           -1.469432           -1.367217
 N           -2.165167           -0.655134           -0.316260
 C           -2.119026            0.722857           -0.520243
 C           -2.162843            1.569984            0.601567
 C           -2.154146            2.962863            0.440852
 C           -2.220837            3.846111            1.568595
 C           -2.250693            5.212445            1.405700
 C           -2.337948            6.122247            2.540424
 C           -2.374808            7.464203            2.359009
 H           -2.363989            9.117729            0.938645
 H           -2.207963            7.645876           -1.071567
 H           -2.055827            5.371499           -2.032475
 H           -1.959519            3.111259           -2.997588
 H           -1.927453            0.793047           -3.960827
 H           -1.921591           -1.554548           -4.844419
 H           -2.039192           -4.006648           -4.382066
 H           -2.209560           -4.850190           -2.082617
 H           -4.704616           -2.817187           -0.795748
 H           -6.886828           -3.147117            0.356876
 H           -6.983292           -4.097859            2.625803
 H           -4.888800           -4.732167            3.827435
 H           -2.436012           -4.871626            3.876429
 H            0.010582           -4.995392            3.948750
 H            2.451992           -5.139615            4.041882
 H            4.900244           -5.270826            4.161836
 H            7.127914           -4.958713            3.078239
 H            7.289570           -4.118649            0.769150
 H            5.242294           -3.583855           -0.539696
 H            1.906139            0.802644            1.141524
 H            1.531223            3.152718            1.823263
 H            1.216402            5.507728            2.520899
 H            1.000594            7.915990            1.902368
 H            1.102099            8.623283           -0.451370
 H            1.421024            6.949253           -2.274952
 H            1.742513            4.593489           -2.964680
 H            2.108279            2.259563           -3.651945
 H            2.524984           -0.122711           -4.321940
 H            2.946836           -2.521622           -4.909326
 H            3.233807           -4.884658           -4.149509
 H            3.110564           -5.466779           -1.768262
 H            0.261002           -3.279041           -0.731722
 H           -2.209139            1.122564            1.597514
 H           -2.252208            3.403086            2.564076
 H           -2.377218            5.680099            3.535296
 H           -2.443432            8.152464            3.200103

