92

 C            4.681446            4.678044            3.930339
 C            4.479239            4.186303            2.695833
 C            3.916678            2.832073            2.675137
 C            3.605728            2.058261            1.595037
 C            3.067540            0.733612            1.795124
 C            2.854271            0.244982            3.129797
 C            2.335880           -1.044179            3.314290
 C            2.028999           -1.867831            2.221250
 C            1.502071           -3.197581            2.427203
 C            1.223036           -3.959219            1.342434
 S            0.579992           -5.596158            1.310725
 C            0.579466           -5.656643           -0.457223
 C            1.040871           -4.516706           -0.999377
 C            1.428847           -3.499068           -0.017174
 C            1.929838           -2.242521           -0.243350
 C            2.155268           -1.753321           -1.625356
 C            3.398456           -1.881252           -2.221833
 C            4.535724           -2.479699           -1.536044
 C            5.738571           -2.607132           -2.146187
 C            5.930056           -2.148186           -3.506304
 C            4.910743           -1.574720           -4.189521
 C            3.596462           -1.411239           -3.582882
 C            2.554699           -0.833118           -4.271701
 C            1.261094           -0.688405           -3.676206
 C            0.195864           -0.106913           -4.380468
 C           -1.076244            0.022614           -3.802277
 C           -2.165380            0.605527           -4.525155
 C           -3.415169            0.722218           -3.960566
 C           -4.530382            1.302227           -4.696583
 C           -5.758964            1.408041           -4.136029
 C           -5.991866            0.952393           -2.781331
 C           -4.988739            0.404936           -2.053648
 C           -3.648602            0.255134           -2.604235
 C           -2.610034           -0.312988           -1.885548
 C           -2.833451           -0.812842           -0.507066
 C           -3.144764           -2.129219           -0.280727
 C           -3.299563           -3.210735           -1.258910
 C           -3.608939           -4.401554           -0.718065
 S           -3.745211           -4.312577            1.043446
 C           -3.362927           -2.595802            1.074700
 C           -3.270965           -1.784664            2.155725
 C           -2.943254           -0.392362            1.949579
 C           -2.841334            0.486319            3.038253
 C           -2.533345            1.841065            2.852352
 C           -2.310213            2.336072            1.521608
 C           -1.998649            3.731231            1.319424
 C           -1.928071            4.570807            2.392920
 C           -1.641857            6.009101            2.409257
 C           -1.652187            6.557121            3.636625
 S           -2.009858            5.363496            4.892593
 C           -2.158677            4.052027            3.729620
 C           -2.444418            2.750105            3.973305
 C           -2.406071            1.454174            0.435233
 C           -2.722593            0.099407            0.616748
 C           -1.294254           -0.445300           -2.459701
 C           -0.222837           -1.017996           -1.755350
 C            1.049905           -1.155458           -2.332141
 C            2.243914           -1.384039            0.884548
 C            2.754808           -0.089888            0.703628
 C            3.185294            1.087958            4.257034
 C            3.696618            2.319410            4.015939
 S            4.198560            3.531404            5.188134
 H            5.080665            5.636269            4.220489
 H            4.696093            4.702043            1.768530
 H            3.754923            2.412322            0.576328
 H            2.168466           -1.415331            4.325645
 H            1.342956           -3.547214            3.445804
 H            0.229313           -6.548231           -0.950630
 H            1.137025           -4.311991           -2.060448
 H            4.382257           -2.821960           -0.510511
 H            6.590704           -3.054344           -1.636341
 H            6.914332           -2.281929           -3.953071
 H            5.037689           -1.220891           -5.211823
 H            2.694785           -0.475893           -5.291623
 H            0.358808            0.248529           -5.397544
 H           -1.981351            0.953613           -5.541254
 H           -4.336440            1.642837           -5.712851
 H           -6.601292            1.833113           -4.680150
 H           -6.994955            1.065968           -2.372703
 H           -5.154663            0.059440           -1.031142
 H           -3.162516           -3.010390           -2.316345
 H           -3.771719           -5.346802           -1.208935
 H           -3.432315           -2.141116            3.171604
 H           -3.006265            0.107221            4.047049
 H           -1.827696            4.085776            0.304315
 H           -1.446729            6.537877            1.484482
 H           -1.476448            7.581420            3.922346
 H           -2.611210            2.363598            4.977087
 H           -2.232965            1.833635           -0.575247
 H           -0.384986           -1.368896           -0.729996
 H            2.916207            0.286001           -0.310115
 H            3.016402            0.709078            5.263369

