92

 C           -2.982380           -2.682544            6.754491
 C           -2.333489           -1.505040            6.756289
 C           -2.283543           -0.847829            5.445773
 C           -1.705431            0.343182            5.115200
 C           -1.763270            0.812121            3.750739
 C           -2.429969            0.021529            2.752908
 C           -3.038471           -1.234433            3.131123
 C           -2.955979           -1.631139            4.424221
 S           -3.596410           -3.100223            5.149227
 C           -2.478291            0.480287            1.428530
 C           -1.892940            1.699123            1.055949
 C           -1.225949            2.490855            2.054379
 C           -1.176056            2.030057            3.378993
 C           -0.617445            3.748537            1.693009
 C           -0.682586            4.184739            0.402041
 C           -0.141510            5.420525           -0.172972
 C           -0.382098            5.562244           -1.488489
 S           -1.293531            4.199480           -2.149602
 C           -1.361626            3.382270           -0.596457
 C           -1.946288            2.186089           -0.311763
 C           -2.625585            1.402436           -1.370831
 C           -3.989146            1.531663           -1.573067
 C           -4.820985            2.403570           -0.754455
 C           -6.151873            2.519983           -0.978763
 C           -6.789865            1.777286           -2.045671
 C           -6.066025            0.950827           -2.837863
 C           -4.631821            0.786651           -2.642791
 C           -3.888048           -0.043263           -3.450240
 C           -2.477173           -0.193608           -3.260613
 C           -1.713404           -1.024847           -4.094260
 C           -0.327462           -1.158150           -3.918677
 C            0.456259           -1.985995           -4.784416
 C            1.817369           -2.104419           -4.618677
 C            2.621340           -2.935172           -5.504826
 C            3.961147           -3.043526           -5.338006
 C            4.629670           -2.333194           -4.267569
 C            3.928935           -1.546398           -3.415992
 C            2.486639           -1.388023           -3.545581
 C            1.748875           -0.582576           -2.694914
 C            2.414942            0.172883           -1.607302
 C            2.806148            1.464298           -1.787561
 S            2.640814            2.442977           -3.236482
 C            3.393221            3.849871           -2.474724
 C            3.755282            3.604507           -1.203005
 C            3.446038            2.245521           -0.746932
 C            3.684552            1.683961            0.473293
 C            3.299924            0.314768            0.718156
 C            3.544043           -0.282289            1.964603
 C            3.180525           -1.612197            2.220598
 C            2.547187           -2.378311            1.182762
 C            2.173944           -3.751485            1.439556
 C            2.429878           -4.274591            2.663065
 S            2.080604           -5.898697            3.241223
 C            2.750363           -5.568458            4.844741
 C            3.216414           -4.311647            4.948257
 C            3.063543           -3.514542            3.726306
 C            3.430700           -2.218787            3.506909
 C            2.300088           -1.781396           -0.061837
 C            2.662931           -0.451210           -0.318836
 C            0.322868           -0.442325           -2.853981
 C           -0.447278            0.378411           -2.014580
 C           -1.830515            0.531181           -2.199721
 H           -3.157243           -3.359983            7.574557
 H           -1.870956           -1.041718            7.618976
 H           -1.194841            0.954709            5.856143
 H           -3.542550           -1.824174            2.366427
 H           -2.981902           -0.125056            0.670504
 H           -0.669556            2.631253            4.134058
 H           -0.115056            4.326799            2.465791
 H            0.396118            6.122976            0.450557
 H           -0.097292            6.367707           -2.145627
 H           -4.331573            2.962600            0.045717
 H           -6.777156            3.170957           -0.369735
 H           -7.861788            1.908659           -2.185636
 H           -6.528123            0.385552           -3.645843
 H           -4.360298           -0.600501           -4.258744
 H           -2.204797           -1.571686           -4.897983
 H           -0.053515           -2.517918           -5.587162
 H            2.101798           -3.460323           -6.304958
 H            4.570719           -3.659861           -5.997087
 H            5.707862           -2.453646           -4.174907
 H            4.425622           -1.004542           -2.608528
 H            3.504470            4.756236           -3.047216
 H            4.233070            4.309058           -0.534714
 H            4.160548            2.244113            1.275591
 H            4.025102            0.300588            2.750063
 H            1.697670           -4.322940            0.643820
 H            2.739315           -6.349432            5.587680
 H            3.669764           -3.878352            5.831202
 H            3.908237           -1.622134            4.281295
 H            1.813795           -2.364901           -0.847796
 H            0.044855            0.920637           -1.200127

