86

 C            0.533475            6.412264            2.234850
 C            1.076253            5.979872            1.074415
 C            1.356057            4.563600            0.852708
 C            1.903200            4.108997           -0.314027
 C            2.195062            2.706893           -0.519336
 C            2.750204            2.256079           -1.701442
 C            3.040198            0.874394           -1.877328
 C            3.587533            0.243596           -2.988866
 S            3.742892           -1.420693           -2.701226
 C            3.098153           -1.368023           -1.119506
 C            2.947919           -2.590024           -0.341816
 C            3.996050           -3.089199            0.417248
 C            5.267586           -2.391744            0.550201
 C            6.279829           -2.905555            1.290137
 C            6.126629           -4.172973            1.973098
 C            4.963447           -4.862144            1.891898
 C            3.838785           -4.352335            1.118735
 C            2.651581           -5.044332            1.043001
 C            1.540990           -4.532631            0.299275
 C            0.320579           -5.222864            0.240080
 C           -0.775789           -4.706405           -0.468242
 C           -2.022950           -5.405663           -0.523598
 C           -3.105369           -4.881983           -1.193487
 C           -4.378556           -5.588277           -1.242379
 C           -5.447613           -5.060487           -1.885257
 C           -5.349552           -3.773542           -2.541058
 C           -4.186002           -3.079077           -2.530734
 C           -2.998661           -3.598609           -1.866529
 C           -1.793463           -2.911680           -1.849158
 C           -1.654376           -1.628149           -2.523306
 C           -1.811599           -0.347494           -1.993733
 C           -2.162761            0.016722           -0.665288
 C           -2.285311            1.348703           -0.319841
 C           -2.654047            1.745566            1.021460
 C           -2.796059            3.060443            1.365601
 C           -3.185020            3.469031            2.712684
 C           -3.332223            4.774296            3.033215
 C           -3.100298            5.813519            2.044407
 C           -2.732513            5.498267            0.782052
 C           -2.562339            4.107656            0.368854
 C           -2.201988            3.771170           -0.905673
 C           -2.050436            2.390770           -1.312261
 C           -1.699338            2.058161           -2.606784
 C           -1.571239            0.693246           -2.988005
 C           -1.237888            0.170130           -4.232538
 S           -1.224794           -1.525564           -4.172498
 C           -0.650283           -3.443768           -1.144240
 C            0.576184           -2.762654           -1.089601
 C            1.679501           -3.280329           -0.393287
 C            2.751129           -0.058115           -0.792057
 C            2.173211            0.426526            0.413279
 C            1.893937            1.771841            0.558270
 C            1.300199            2.290298            1.771471
 C            1.036607            3.621972            1.928084
 C            0.439349            4.153419            3.150287
 C            0.203685            5.476606            3.296582
 H            0.324108            7.465765            2.411070
 H            1.325920            6.668214            0.268392
 H            2.138943            4.793799           -1.127698
 H            2.974909            2.941951           -2.515109
 H            3.875768            0.709877           -3.914002
 H            5.371677           -1.431621            0.041176
 H            7.230041           -2.384323            1.394715
 H            6.972243           -4.544331            2.550035
 H            4.829266           -5.815803            2.400634
 H            2.531663           -5.998308            1.555396
 H            0.220318           -6.175959            0.758010
 H           -2.097006           -6.366888           -0.016154
 H           -4.434520           -6.553504           -0.740955
 H           -6.403989           -5.579503           -1.926159
 H           -6.238903           -3.386793           -3.035941
 H           -4.108122           -2.102925           -3.013135
 H           -2.330024           -0.777720            0.061812
 H           -2.818755            0.952982            1.751353
 H           -3.353091            2.678416            3.442744
 H           -3.625758            5.088624            4.033063
 H           -3.232196            6.846535            2.360524
 H           -2.549162            6.265776            0.031145
 H           -2.017695            4.537973           -1.657540
 H           -1.514497            2.826701           -3.354095
 H           -1.010736            0.728219           -5.123292
 H            0.670213           -1.793971           -1.592517
 H            1.956895           -0.287967            1.207344
 H            1.065638            1.575488            2.560372
 H            0.189356            3.438671            3.933413
 H           -0.242060            5.881701            4.203109

