56

 C            2.706685           -3.964918           -0.145433
 C            2.865213           -3.172483            0.996253
 C            2.768227           -1.781865            0.904855
 C            2.513072           -1.181089           -0.336939
 C            2.450330            0.297248           -0.445478
 C            3.603776            1.019377           -0.704382
 C            4.901653            0.380649           -0.879456
 C            6.016807            1.107076           -1.132839
 C            5.951515            2.549709           -1.237514
 C            4.772133            3.198008           -1.083485
 C            3.541616            2.467274           -0.809907
 C            2.338597            3.116542           -0.652322
 C            1.133486            2.391724           -0.384837
 C           -0.091892            3.056429           -0.225596
 C           -1.276486            2.351657            0.035141
 C           -2.524120            3.035477            0.195347
 C           -3.687709            2.346568            0.449444
 C           -4.961365            3.035543            0.612342
 C           -6.101812            2.348382            0.861081
 C           -6.081337            0.904854            0.971948
 C           -4.923313            0.216236            0.829280
 C           -3.663712            0.897773            0.560523
 C           -2.468059            0.214972            0.410369
 C           -2.441119           -1.264063            0.523787
 C           -2.624791           -2.057615           -0.618272
 C           -2.633662           -3.449816           -0.502167
 C           -2.458349           -4.052360            0.747821
 C           -2.266598           -3.260331            1.884693
 C           -2.256599           -1.867548            1.776721
 C           -1.237974            0.917348            0.142907
 C           -0.008659            0.255992           -0.015987
 C            1.180248            0.957625           -0.278119
 C            2.344458           -1.975425           -1.480772
 C            2.442765           -3.365486           -1.381265
 H            2.788419           -5.047335           -0.072112
 H            3.066882           -3.638730            1.959235
 H            2.891593           -1.161438            1.791435
 H            4.943676           -0.707409           -0.799167
 H            6.987425            0.632117           -1.264324
 H            6.876672            3.086272           -1.442567
 H            4.705496            4.282499           -1.159064
 H            2.278833            4.201670           -0.728730
 H           -0.123978            4.142281           -0.306483
 H           -2.528805            4.121582            0.110070
 H           -4.959211            4.121277            0.526027
 H           -7.058805            2.853318            0.983977
 H           -7.023632            0.398094            1.172373
 H           -4.900695           -0.872195            0.911458
 H           -2.761362           -1.585032           -1.589931
 H           -2.779333           -4.065521           -1.388169
 H           -2.470658           -5.136686            0.835821
 H           -2.126409           -3.728602            2.857552
 H           -2.107991           -1.247506            2.659701
 H            0.023954           -0.835444            0.066425
 H            2.139785           -1.505039           -2.441468
 H            2.315420           -3.981734           -2.269701

