92

 C            3.260595            5.518341           -1.693184
 C            3.147241            4.653662           -2.845724
 C            2.976763            3.315689           -2.692724
 C            2.907385            2.718673           -1.370607
 C            2.736033            1.354382           -1.193649
 C            2.680362            0.779297            0.104743
 C            2.795545            1.639451            1.245345
 C            2.965124            3.037236            1.053372
 C            3.023803            3.583055           -0.218880
 C            3.200975            5.008150           -0.436667
 C            2.739422            1.082594            2.549862
 C            2.581281           -0.280778            2.738785
 C            2.522031           -0.856439            4.071316
 C            2.368506           -2.193201            4.248020
 C            2.259561           -3.074476            3.108967
 C            2.305781           -2.581502            1.845117
 C            2.468634           -1.159124            1.597556
 C            2.514408           -0.625519            0.309627
 C            2.376154           -1.518426           -0.870444
 C            3.492133           -2.007985           -1.527715
 C            4.848869           -1.671085           -1.118625
 C            5.925839           -2.165061           -1.775230
 C            5.757622           -3.048969           -2.909725
 C            4.519388           -3.396746           -3.334694
 C            3.325538           -2.896518           -2.666093
 C            2.064844           -3.254767           -3.086530
 C            0.895129           -2.767897           -2.420342
 C           -0.392509           -3.149065           -2.828091
 C           -1.536307           -2.691046           -2.155499
 C           -2.848779           -3.108520           -2.544789
 C           -3.965365           -2.672653           -1.867995
 C           -5.302288           -3.106478           -2.251069
 C           -6.397173           -2.677421           -1.578903
 C           -6.264613           -1.770963           -0.457452
 C           -5.044228           -1.336774           -0.060508
 C           -3.829842           -1.762704           -0.742478
 C           -2.571496           -1.335061           -0.353474
 C           -2.398144           -0.400150            0.788854
 C           -2.068417           -0.890315            2.052217
 C           -1.912815           -2.309889            2.319576
 C           -1.578813           -2.760015            3.555764
 C           -1.365905           -1.834565            4.644235
 C           -1.502608           -0.498708            4.448206
 C           -1.862592            0.032249            3.144727
 C           -2.002186            1.394652            2.935764
 C           -2.350005            1.907872            1.658688
 C           -2.499592            3.305260            1.448000
 C           -2.843799            3.808952            0.203824
 C           -3.004649            5.233112           -0.032027
 C           -3.350701            5.700902           -1.258532
 C           -3.566131            4.791044           -2.360569
 C           -3.421835            3.452102           -2.190448
 C           -3.052442            2.899695           -0.899080
 C           -2.900228            1.535347           -0.705603
 C           -2.552362            1.003578            0.565511
 C           -1.389729           -1.791472           -1.042994
 C           -0.100412           -1.396246           -0.652357
 C            1.047486           -1.877713           -1.301007
 H            3.393710            6.584697           -1.868899
 H            3.201784            5.111437           -3.831812
 H            2.887075            2.651085           -3.551509
 H            2.640987            0.699811           -2.063176
 H            3.048583            3.677975            1.930315
 H            3.282753            5.646873            0.441426
 H            2.821359            1.749660            3.407422
 H            2.603107           -0.176225            4.917702
 H            2.322298           -2.635602            5.241457
 H            2.139093           -4.139663            3.298309
 H            2.219987           -3.240386            0.978985
 H            4.963999           -1.004114           -0.261492
 H            6.941535           -1.915161           -1.473063
 H            6.656031           -3.418993           -3.401624
 H            4.374980           -4.060864           -4.185544
 H            1.931713           -3.923829           -3.936043
 H           -0.506482           -3.819222           -3.679111
 H           -2.942244           -3.788574           -3.390857
 H           -5.383793           -3.789099           -3.095663
 H           -7.400623           -2.996927           -1.856528
 H           -7.174789           -1.455282            0.049732
 H           -4.932444           -0.654006            0.784517
 H           -2.071792           -3.002269            1.490768
 H           -1.461093           -3.822771            3.759949
 H           -1.092959           -2.243619            5.615321
 H           -1.344198            0.214064            5.255967
 H           -1.842370            2.094821            3.755132
 H           -2.337112            3.979832            2.287744
 H           -2.836812            5.906249            0.807282
 H           -3.474513            6.766126           -1.447300
 H           -3.844587            5.215784           -3.323344
 H           -3.577943            2.753371           -3.011822
 H           -3.049436            0.847223           -1.540936
 H            0.013712           -0.699442            0.186428

