92

 C           -8.597854            2.075355            3.037680
 C           -7.608870            2.800218            2.455198
 C           -6.540636            2.148525            1.717282
 C           -5.524466            2.870148            1.109761
 C           -4.486694            2.214228            0.394260
 C           -3.438756            2.938664           -0.234002
 C           -2.429256            2.286173           -0.925425
 C           -1.347623            3.022142           -1.555428
 C           -0.358935            2.373680           -2.221315
 C           -0.365459            0.935627           -2.329622
 C           -1.361239            0.197398           -1.763628
 C           -1.355695           -1.281476           -1.900581
 C           -2.068413           -1.897323           -2.915446
 C           -2.880435           -1.148651           -3.865323
 C           -3.561661           -1.772631           -4.856119
 C           -3.501009           -3.212125           -5.000962
 C           -2.765250           -3.960550           -4.144657
 C           -2.015274           -3.342713           -3.059263
 C           -1.263905           -4.096942           -2.187122
 C           -0.523587           -3.484484           -1.126315
 C            0.250336           -4.250286           -0.241067
 C            0.979917           -3.649060            0.795977
 C            1.780029           -4.428452            1.690808
 C            2.500684           -3.835359            2.702285
 C            3.316074           -4.624148            3.616108
 C            4.027669           -4.033633            4.605956
 C            3.996565           -2.596263            4.778801
 C            3.248562           -1.817974            3.960232
 C            2.455598           -2.393699            2.882364
 C            1.674362           -1.620696            2.040116
 C            1.575018           -0.152383            2.241352
 C            2.487134            0.732667            1.523194
 C            3.428797            0.261250            0.621838
 C            4.299731            1.148412           -0.066747
 C            5.260772            0.672578           -0.998800
 C            6.106407            1.547021           -1.664237
 C            7.097396            1.078671           -2.617165
 C            7.915159            1.951199           -3.259683
 C            7.817940            3.371267           -3.009789
 C            6.909302            3.857857           -2.126416
 C            6.011809            2.967110           -1.411281
 C            5.077853            3.443002           -0.503819
 C            4.206020            2.556134            0.183481
 C            3.238388            3.029083            1.109498
 C            2.386288            2.154508            1.766539
 C            1.378213            2.636899            2.693639
 C            0.537971            1.774602            3.319526
 C            0.638827            0.354001            3.092319
 C            0.924729           -2.221738            0.965636
 C            0.147100           -1.460379            0.078544
 C           -0.571802           -2.055292           -0.970500
 C           -2.439515            0.843410           -1.021508
 C           -3.456640            0.127366           -0.409987
 C           -4.494334            0.784212            0.304848
 C           -5.540858            0.055521            0.931198
 C           -6.551264            0.706146            1.622597
 C           -7.634672           -0.021375            2.260019
 C           -8.613038            0.633908            2.935442
 H           -9.402659            2.553606            3.593956
 H           -7.586049            3.886894            2.523108
 H           -5.509833            3.957490            1.174075
 H           -3.437697            4.025762           -0.163057
 H           -1.357504            4.107655           -1.469337
 H            0.464124            2.913510           -2.689035
 H            0.449592            0.460042           -2.875931
 H           -2.921512           -0.064072           -3.746373
 H           -4.170770           -1.216357           -5.566863
 H           -4.063905           -3.663491           -5.816397
 H           -2.707600           -5.043943           -4.239883
 H           -1.214961           -5.180469           -2.289249
 H            0.287056           -5.332323           -0.362355
 H            1.804439           -5.508572            1.550575
 H            3.328030           -5.703628            3.471972
 H            4.639140           -4.613980            5.295114
 H            4.593032           -2.168868            5.583345
 H            3.220888           -0.733201            4.080482
 H            3.511448           -0.810124            0.424748
 H            5.322632           -0.400045           -1.183896
 H            7.160182            0.005700           -2.794504
 H            8.662227            1.610662           -3.974725
 H            8.494824            4.030059           -3.551805
 H            6.825820            4.925402           -1.927835
 H            5.000714            4.511360           -0.305456
 H            3.171542            4.100361            1.295936
 H            1.318451            3.711280            2.861298
 H           -0.231870            2.125164            4.006369
 H           -0.055541           -0.299266            3.621297
 H            0.101838           -0.373389            0.207395
 H           -3.472610           -0.963372           -0.469348
 H           -5.536537           -1.032198            0.857883
 H           -7.633437           -1.107284            2.173731
 H           -9.431108            0.098594            3.414476

