96

 C           -9.253204            0.786689           -3.480299
 C           -9.971340            0.228477           -2.385170
 C           -9.301700           -0.216008           -1.271891
 C           -7.876651           -0.129795           -1.186366
 C           -7.164201            0.426961           -2.280281
 C           -7.885165            0.883783           -3.429578
 C           -5.740079            0.526721           -2.229225
 C           -5.039364            0.087291           -1.128196
 C           -3.586904            0.177365           -1.061520
 C           -2.889380           -0.254318            0.016649
 C           -1.407861           -0.145295            0.027817
 C           -0.799606            1.031412            0.513883
 C           -1.570905            2.108441            1.061285
 C           -0.975068            3.261503            1.519970
 C           -1.747964            4.355742            2.091034
 C           -1.141139            5.489462            2.517880
 C            0.295950            5.644643            2.413199
 C            1.063690            4.652163            1.902160
 C            0.468014            3.406421            1.439616
 C            1.229242            2.377540            0.933040
 C            0.632236            1.161534            0.464785
 C            1.410115            0.101463           -0.047669
 C            2.890284            0.226779           -0.070666
 C            3.621340           -0.168361            0.998951
 C            5.073763           -0.055000            1.025752
 C            5.809540           -0.455826            2.118705
 C            7.232783           -0.332751            2.130476
 C            7.990444           -0.748857            3.271720
 C            9.357547           -0.628722            3.284616
 C           10.038334           -0.087795            2.157360
 C            9.333350            0.316851            1.050809
 C            7.908139            0.206655            1.004859
 C            7.141143            0.624810           -0.142092
 C            5.742466            0.495874           -0.129588
 C            4.958690            0.911747           -1.269015
 C            3.533627            0.786919           -1.264236
 C            2.806542            1.196384           -2.379894
 C            3.461711            1.729557           -3.505577
 C            4.840719            1.857921           -3.524728
 C            5.609383            1.451539           -2.407834
 C            7.048006            1.572585           -2.395510
 C            7.775018            1.178586           -1.315815
 C            0.802388           -1.078974           -0.524697
 C            1.573377           -2.158145           -1.068565
 C            0.977172           -3.310526           -1.527938
 C            1.749788           -4.405460           -2.098174
 C            1.142392           -5.537208           -2.528964
 C           -0.295258           -5.690209           -2.428505
 C           -1.062897           -4.697833           -1.917131
 C           -0.466396           -3.453585           -1.451127
 C           -1.227469           -2.424106           -0.945793
 C           -0.629681           -1.208423           -0.476969
 C           -3.571172           -0.833832            1.178635
 C           -4.997695           -0.936999            1.143780
 C           -5.685633           -1.494855            2.251495
 C           -4.952058           -1.940629            3.376970
 C           -3.571251           -1.833012            3.396359
 C           -2.879194           -1.281984            2.301712
 C           -7.125109           -1.593348            2.199325
 C           -7.818104           -1.161828            1.111614
 C           -7.146063           -0.588849           -0.031223
 C           -5.745767           -0.481380           -0.004531
 H           -9.807450            1.131743           -4.351680
 H          -11.056152            0.161629           -2.448498
 H           -9.850977           -0.644179           -0.431675
 H           -7.324500            1.308780           -4.260887
 H           -5.218732            0.958445           -3.083166
 H           -3.076172            0.609065           -1.924271
 H           -2.656143            1.992924            1.111007
 H           -2.827271            4.223909            2.162335
 H           -1.708093            6.312770            2.949811
 H            0.729456            6.582192            2.758046
 H            2.145428            4.752781            1.817473
 H            2.315972            2.474682            0.875816
 H            3.139393           -0.586476            1.884580
 H            5.317178           -0.874312            2.996054
 H            7.458192           -1.161705            4.127404
 H            9.939553           -0.942682            4.149664
 H           11.123182           -0.002226            2.190820
 H            9.853803            0.731091            0.185555
 H            1.718437            1.106679           -2.390383
 H            2.869795            2.041965           -4.365836
 H            5.343542            2.271643           -4.397851
 H            7.532610            1.989450           -3.278261
 H            8.862977            1.272487           -1.311121
 H            2.658967           -2.044401           -1.115141
 H            2.829528           -4.275232           -2.166182
 H            1.708886           -6.360598           -2.961289
 H           -0.729247           -6.626229           -2.776716
 H           -2.144973           -4.796925           -1.835355
 H           -2.314402           -2.519773           -0.890259
 H           -5.483466           -2.368410            4.226043
 H           -3.006533           -2.176121            4.263241
 H           -1.790532           -1.209098            2.341857
 H           -7.638650           -2.024610            3.058453
 H           -8.906821           -1.238860            1.076827

