96

 C           -5.580713            3.387293           -0.806657
 C           -4.172477            3.587766           -0.828894
 C           -3.323570            2.538761           -0.578643
 C           -3.832734            1.231570           -0.292040
 C           -5.237112            1.030551           -0.270712
 C           -6.095420            2.143952           -0.535483
 C           -5.764526           -0.280397            0.013669
 C           -4.883042           -1.342013            0.271909
 C           -5.402398           -2.659828            0.557598
 C           -4.515260           -3.748965            0.821811
 C           -5.034265           -5.012892            1.094778
 C           -6.425716           -5.221051            1.111142
 C           -7.300245           -4.176726            0.856785
 C           -6.802626           -2.881721            0.576385
 C           -7.684436           -1.771377            0.306118
 C           -7.186226           -0.534596            0.038825
 C           -3.079513           -3.497624            0.795832
 C           -2.585098           -2.271256            0.528449
 C           -3.454238           -1.129945            0.251370
 C           -2.948301            0.128383           -0.028516
 C           -1.480279            0.356221           -0.069016
 C           -0.781072            0.163008           -1.280156
 C           -1.454693           -0.231101           -2.481653
 C           -0.770643           -0.429813           -3.659479
 C           -1.446041           -0.835021           -4.883972
 C           -0.751732           -1.025820           -6.031647
 C            0.683706           -0.830716           -6.069773
 C            1.361434           -0.453600           -4.958749
 C            0.667841           -0.234350           -3.697423
 C            1.334556            0.148003           -2.555237
 C            0.643655            0.357422           -1.317477
 C            1.326572            0.741137           -0.142573
 C            2.802256            0.914078           -0.179185
 C            3.639379           -0.156350            0.087921
 C            3.121991           -1.479732            0.427900
 C            3.938791           -2.522551            0.683802
 C            5.388907           -2.382062            0.632913
 C            5.938514           -1.104027            0.304995
 C            7.346296           -0.945062            0.248209
 C            8.184951           -2.053103            0.516716
 C            7.635121           -3.285008            0.833318
 C            6.239613           -3.454581            0.892844
 C            7.884869            0.351962           -0.085397
 C            7.061557            1.403543           -0.341274
 C            5.624187            1.269514           -0.290951
 C            5.072163            0.019638            0.031082
 C            4.752223            2.384270           -0.563887
 C            5.267845            3.676755           -0.895955
 C            4.427004            4.730744           -1.153509
 C            3.017158            4.550850           -1.092368
 C            2.492671            3.322253           -0.777685
 C            3.345921            2.204938           -0.505943
 C            0.625655            0.946982            1.064745
 C            1.297297            1.344870            2.266830
 C            0.612700            1.536144            3.445460
 C            1.285971            1.939298            4.672215
 C            0.590872            2.121084            5.820837
 C           -0.843495            1.917764            5.859176
 C           -1.519357            1.542201            4.746773
 C           -0.825204            1.333674            3.483805
 C           -1.490957            0.954353            2.340695
 C           -0.799215            0.749634            1.102370
 H           -6.236973            4.232629           -1.007601
 H           -3.784756            4.581627           -1.046827
 H           -2.242127            2.686791           -0.594484
 H           -7.175038            1.985722           -0.517709
 H           -4.366475           -5.848586            1.297230
 H           -6.810954           -6.217206            1.326754
 H           -8.375675           -4.344092            0.870505
 H           -8.758190           -1.955765            0.322810
 H           -7.857619            0.302528           -0.165567
 H           -2.421962           -4.342592            1.001100
 H           -1.507570           -2.090111            0.510423
 H           -2.537427           -0.373692           -2.443764
 H           -2.525325           -0.978138           -4.837704
 H           -1.245331           -1.329723           -6.953166
 H            1.191306           -0.998443           -7.018198
 H            2.440661           -0.303511           -4.970491
 H            2.416572            0.299226           -2.574684
 H            2.035772           -1.592532            0.467522
 H            3.541928           -3.505814            0.936883
 H            9.265324           -1.928205            0.471786
 H            8.282703           -4.136679            1.039565
 H            5.830203           -4.431702            1.143582
 H            8.968318            0.460465           -0.125621
 H            7.473704            2.383282           -0.593580
 H            6.349995            3.810346           -0.941518
 H            4.822792            5.713051           -1.406760
 H            2.367855            5.400147           -1.298854
 H            1.411648            3.178388           -0.729578
 H            2.378863            1.495172            2.227507
 H            2.364662            2.086837            4.627141
 H            1.083259            2.422256            6.744037
 H           -1.351469            2.076644            6.808945
 H           -2.597419            1.383795            4.758616
 H           -2.572626            0.800454            2.358778

