96

 C          -12.138136            0.218296           -0.841158
 C          -11.466176            0.139979           -2.075245
 C          -10.074004            0.107218           -2.117796
 C           -9.328820            0.153597           -0.898677
 C          -10.015123            0.232741            0.339157
 C          -11.429931            0.264284            0.349217
 C           -9.242259            0.278699            1.557976
 C           -7.882806            0.246485            1.526536
 C           -7.158005            0.165222            0.279519
 C           -7.885850            0.119906           -0.921118
 C           -7.198837            0.038663           -2.189467
 C           -5.823014            0.004262           -2.221736
 C           -5.060310            0.047427           -1.014042
 C           -3.632225            0.007421           -1.059903
 C           -2.893680            0.047436            0.101084
 C           -1.411844            0.000651            0.056935
 C           -0.755561           -1.247337            0.107498
 C           -1.481303           -2.478441            0.219013
 C           -0.837203           -3.694099            0.264540
 C           -1.565128           -4.949484            0.386689
 C           -0.910176           -6.135076            0.419486
 C            0.535465           -6.184776            0.331543
 C            1.261926           -5.046105            0.224062
 C            0.612413           -3.743069            0.190943
 C            1.329769           -2.572479            0.091099
 C            0.680732           -1.295076            0.047882
 C            1.412149           -0.092807           -0.053587
 C            2.893848           -0.141937           -0.098138
 C            3.549019           -0.273916           -1.360758
 C            4.918291           -0.324909           -1.422570
 C            5.717067           -0.248146           -0.238188
 C            5.061899           -0.114552            1.013712
 C            3.634161           -0.063407            1.059711
 C            5.826469           -0.032901            2.218200
 C            7.201786           -0.084298            2.186248
 C            8.001538           -0.003165            3.405695
 C            9.349450           -0.056304            3.373390
 C           10.075538           -0.197358            2.115753
 C            9.328537           -0.278277            0.899670
 C           10.012266           -0.414923           -0.334659
 C           11.426322           -0.470242           -0.344002
 C           12.136398           -0.391058            0.843517
 C           11.466937           -0.254551            2.073908
 C            9.237714           -0.494038           -1.550566
 C            7.878898           -0.440302           -1.519745
 C            7.156502           -0.302874           -0.276255
 C            7.886292           -0.222533            0.921456
 C            0.755887            1.154658           -0.105226
 C            1.481696            2.385684           -0.220963
 C            0.837584            3.601059           -0.267653
 C            1.565439            4.856064           -0.395764
 C            0.910426            6.041597           -0.430071
 C           -0.534946            6.091808           -0.337152
 C           -1.261133            4.953754           -0.223717
 C           -0.611999            3.650420           -0.189775
 C           -1.329241            2.480394           -0.086142
 C           -0.680532            1.202538           -0.044156
 C           -3.551225            0.132057            1.366488
 C           -4.920902            0.171283            1.428276
 C           -5.717886            0.128964            0.241045
 C           -7.996562           -0.005636           -3.412015
 C           -9.345266            0.026250           -3.379135
 H          -13.227375            0.242576           -0.830497
 H          -12.045035            0.105166           -2.996699
 H          -11.956166            0.324897            1.300368
 H           -9.781839            0.339849            2.502676
 H           -7.303603            0.281521            2.451799
 H           -5.289450           -0.056943           -3.170216
 H           -3.137741           -0.056347           -2.029385
 H           -2.571488           -2.432839            0.268363
 H           -2.651429           -4.895265            0.451570
 H           -1.443805           -7.079735            0.512489
 H            1.009991           -7.164634            0.354728
 H            2.349240           -5.066596            0.157439
 H            2.420543           -2.599711            0.041736
 H            2.939602           -0.332481           -2.262500
 H            5.422242           -0.425927           -2.386160
 H            3.141182            0.037949            2.026734
 H            5.294606            0.070838            3.163922
 H            7.460078            0.102419            4.346333
 H            9.942803            0.004349            4.285892
 H           11.950303           -0.575669           -1.292503
 H           13.225044           -0.434190            0.833467
 H           12.047269           -0.194169            2.993178
 H            9.775119           -0.598119           -2.492738
 H            7.298430           -0.500583           -2.442827
 H            2.571682            2.339483           -0.273409
 H            2.651460            4.801417           -0.464164
 H            1.443943            6.985852           -0.528071
 H           -1.009426            7.071665           -0.361643
 H           -2.348224            4.974656           -0.153029
 H           -2.419835            2.507741           -0.032788
 H           -2.943169            0.163770            2.270590
 H           -5.426688            0.235602            2.394054
 H           -7.453393           -0.066051           -4.355613
 H           -9.937005           -0.007429           -4.293962

