100

 C            6.072849            5.437621           -5.429989
 C            4.864959            5.952550           -4.814635
 C            4.063911            5.144896           -4.080208
 C            4.388262            3.737266           -3.883777
 C            3.581765            2.910954           -3.137745
 C            3.922723            1.527961           -2.958254
 N            3.116542            0.724262           -2.215390
 C            3.477528           -0.580057           -2.071215
 C            2.658682           -1.466157           -1.293396
 C            3.008233           -2.787131           -1.136261
 C            4.219292           -3.302949           -1.765272
 C            5.023340           -2.476719           -2.516273
 C            4.685550           -1.096210           -2.694074
 N            5.493955           -0.291571           -3.438178
 C            5.133585            1.011610           -3.579984
 C            5.954405            1.899259           -4.352597
 C            5.602721            3.219438           -4.504601
 C            6.423655            4.138251           -5.283556
 C            4.558667           -4.707569           -1.583545
 C            3.770839           -5.525849           -0.847224
 C            2.570229           -5.023514           -0.217340
 C            2.200548           -3.720996           -0.347929
 C            0.964148           -3.246756            0.324837
 C           -0.276331           -3.358178           -0.337785
 C           -0.369337           -3.813913           -1.693456
 C           -1.583371           -3.943989           -2.328969
 C           -1.688463           -4.407484           -3.705511
 C           -2.894758           -4.527799           -4.310426
 C           -4.114842           -4.195845           -3.602286
 C           -4.074009           -3.758152           -2.320807
 C           -2.806284           -3.611027           -1.619289
 C           -2.740014           -3.168131           -0.317710
 C           -1.487687           -3.027895            0.365145
 C           -1.417815           -2.596806            1.706859
 C           -2.672627           -2.390813            2.474334
 C           -3.220930           -3.438199            3.147120
 C           -4.443934           -3.282123            3.902574
 C           -5.074153           -2.085507            3.957820
 C           -4.539940           -0.923122            3.261420
 C           -5.184622            0.290837            3.321480
 C           -4.655635            1.431676            2.635363
 N           -5.306896            2.625548            2.703834
 C           -4.767745            3.680629            2.036680
 C           -5.418424            4.958593            2.076759
 C           -4.884895            6.034190            1.407035
 C           -5.531047            7.340535            1.433231
 C           -5.001381            8.396431            0.771755
 C           -3.771549            8.256253            0.016485
 C           -3.128000            7.066387           -0.043191
 C           -3.648178            5.892157            0.646389
 C           -3.002122            4.679970            0.589320
 C           -3.534697            3.537606            1.276289
 N           -2.885428            2.345148            1.208076
 C           -3.425118            1.288475            1.874226
 C           -2.775536            0.009052            1.829656
 C           -3.305966           -1.070120            2.497092
 C           -0.172832           -2.423176            2.347964
 C           -0.078109           -1.943441            3.695128
 C            1.137225           -1.797065            4.324953
 C            1.244276           -1.309176            5.692895
 C            2.451804           -1.173556            6.292215
 C            3.671209           -1.510873            5.585537
 C            3.628774           -1.967162            4.310594
 C            2.359634           -2.132877            3.616023
 C            2.292036           -2.592326            2.320201
 C            1.038279           -2.753962            1.645136
 H            6.680474            6.131737           -6.009886
 H            4.630422            7.005633           -4.966399
 H            3.152599            5.517599           -3.612480
 H            2.666278            3.271688           -2.661848
 H            1.753817           -1.051434           -0.834946
 H            5.934573           -2.841299           -2.996246
 H            6.857830            1.487064           -4.807976
 H            7.327848            3.735762           -5.740446
 H            5.468141           -5.069305           -2.063327
 H            4.013615           -6.579037           -0.705268
 H            1.972334           -5.724118            0.367248
 H            0.555349           -4.054450           -2.222135
 H           -0.762372           -4.650059           -4.225696
 H           -2.985428           -4.871425           -5.339841
 H           -5.056613           -4.308000           -4.137522
 H           -4.981998           -3.501362           -1.775989
 H           -3.653997           -2.908071            0.220362
 H           -2.754201           -4.424100            3.134391
 H           -4.833906           -4.158969            4.419733
 H           -5.997465           -1.951041            4.521472
 H           -6.109983            0.423844            3.886883
 H           -6.342951            5.039213            2.653158
 H           -6.454870            7.429822            2.005007
 H           -5.477730            9.376315            0.785181
 H           -3.390282            9.138766           -0.496203
 H           -2.202865            6.945837           -0.606858
 H           -2.074538            4.544781            0.027180
 H           -1.850147           -0.071236            1.248158
 H           -1.001716           -1.687205            4.218350
 H            0.318777           -1.057247            6.209768
 H            2.544334           -0.806918            7.313537
 H            4.614416           -1.380959            6.114330
 H            4.536648           -2.222199            3.764809
 H            3.206858           -2.839093            1.777347

