100

 C          -14.910002            0.425270            0.602678
 C          -14.590475            1.826701            0.792989
 C          -13.302676            2.242246            0.841905
 C          -12.201480            1.297438            0.704134
 C          -10.891113            1.712206            0.751334
 C           -9.822557            0.766291            0.608195
 N           -8.531384            1.194015            0.647254
 C           -7.550294            0.263354            0.500381
 C           -6.174687            0.669717            0.519971
 C           -5.171055           -0.256653            0.359270
 C           -3.771130            0.139637            0.347476
 C           -2.784190           -0.776208            0.168746
 C           -1.356839           -0.376110            0.110851
 C           -0.565718           -0.429959            1.277563
 C           -1.097666           -0.875818            2.531923
 C           -0.323395           -0.922412            3.669298
 C           -0.850169           -1.386958            4.945211
 C           -0.071499           -1.411335            6.053794
 C            1.308304           -0.971283            5.999733
 C            1.851070           -0.537446            4.836614
 C            1.064934           -0.498954            3.611271
 C            1.598396           -0.074881            2.415318
 C            0.815027           -0.030276            1.215567
 C            1.360712            0.397758           -0.013505
 C            2.790104            0.789691           -0.075892
 C            3.770429           -0.132466           -0.258456
 C            5.172175            0.256369           -0.286658
 C            6.169121           -0.675713           -0.455847
 C            7.546647           -0.275504           -0.459995
 N            8.521200           -1.211272           -0.617718
 C            9.814579           -0.788631           -0.605282
 C           10.876667           -1.739632           -0.762268
 C           12.189174           -1.329265           -0.745545
 C           13.284099           -2.278858           -0.899292
 C           14.574050           -1.867416           -0.881583
 C           14.902408           -0.465694           -0.709225
 C           13.926253            0.460988           -0.561192
 C           12.519424            0.080599           -0.570665
 C           11.521870            1.015335           -0.419749
 C           10.143851            0.617888           -0.431060
 N            9.168430            1.554401           -0.277283
 C            7.875891            1.131563           -0.288025
 C            6.812465            2.081389           -0.122876
 C            5.501672            1.667366           -0.118517
 C            4.405675            2.612823            0.057377
 C            3.117632            2.199948            0.078455
 C            0.568936            0.454188           -1.179523
 C            1.100942            0.901801           -2.433305
 C            0.326106            0.952712           -3.569875
 C            0.853099            1.419694           -4.844858
 C            0.073722            1.449023           -5.952674
 C           -1.307225            1.012660           -5.898440
 C           -1.850200            0.576328           -4.736396
 C           -1.062928            0.531651           -3.511829
 C           -1.595960            0.104126           -2.316956
 C           -0.811952            0.055331           -1.117554
 C           -3.102598           -2.187947            0.008701
 C           -4.388577           -2.607672            0.014997
 C           -5.491489           -1.668305            0.179841
 C           -6.800282           -2.088300            0.162163
 C           -7.870518           -1.143960            0.314311
 N           -9.160911           -1.571893            0.277061
 C          -10.142864           -0.640171            0.417916
 C          -11.518932           -1.042391            0.375506
 C          -12.522836           -0.112199            0.511785
 C          -13.927849           -0.497214            0.468991
 H          -15.962954            0.146932            0.572137
 H          -15.420600            2.525252            0.894049
 H          -13.046422            3.292274            0.984737
 H          -10.622584            2.761470            0.895744
 H           -5.961812            1.732496            0.660886
 H           -3.544500            1.199224            0.478049
 H           -2.145009           -1.182194            2.568703
 H           -1.889396           -1.713394            4.970737
 H           -0.453691           -1.759169            7.012625
 H            1.885910           -1.002975            6.922649
 H            2.886800           -0.203560            4.779519
 H            2.642712            0.240396            2.363212
 H            3.536926           -1.191336           -0.382508
 H            5.949483           -1.738325           -0.587161
 H           10.601744           -2.789051           -0.892561
 H           13.021463           -3.329094           -1.028073
 H           15.399211           -2.569898           -0.995165
 H           15.956653           -0.190657           -0.703875
 H           14.157680            1.518321           -0.430554
 H           11.740673            2.077554           -0.286710
 H            7.084547            3.132509            0.000621
 H            4.666781            3.665789            0.173829
 H            2.289276            2.897435            0.211132
 H            2.148783            1.206666           -2.470178
 H            1.893037            1.744029           -4.870065
 H            0.455947            1.798262           -6.911021
 H           -1.885530            1.049078           -6.820703
 H           -2.886858            0.245454           -4.679448
 H           -2.640593           -0.209985           -2.265127
 H           -2.269443           -2.881111           -0.116380
 H           -4.642770           -3.661751           -0.106328
 H           -7.065562           -3.140015            0.029581
 H          -11.731029           -2.104401            0.230665
 H          -14.152687           -1.554240            0.325440

