102

 C          -10.574749           -1.650029            2.590455
 C          -10.627392           -0.941879            1.428587
 C           -9.399188           -0.582452            0.781678
 C           -9.096981            0.116272           -0.377295
 C           -9.858965            0.781750           -1.419338
 C           -9.383287            1.975727           -1.990794
 C          -10.125244            2.615581           -2.985550
 C          -11.337870            2.069413           -3.418470
 C          -11.807573            0.877396           -2.857974
 C          -11.074676            0.230985           -1.860038
 O           -7.704921            0.183952           -0.534570
 C           -7.128035           -0.489061            0.553269
 C           -5.676474           -0.517386            0.541477
 C           -4.982509           -0.650962           -0.674850
 C           -3.588389           -0.645877           -0.688229
 C           -2.876688           -0.501584            0.512460
 C           -1.394418           -0.447539            0.493161
 C           -0.648970           -1.633338            0.647917
 C           -1.282552           -2.908129            0.820832
 C           -0.550189           -4.064292            0.964197
 C           -1.184141           -5.364165            1.136323
 C           -0.442598           -6.489510            1.274662
 C            1.005244           -6.428978            1.253810
 C            1.646140           -5.246034            1.096045
 C            0.901096           -4.003708            0.944252
 C            1.530454           -2.790435            0.783432
 C            0.788450           -1.573083            0.629683
 C            1.428504           -0.329292            0.458498
 C            2.910139           -0.262249            0.441793
 C            3.601519           -0.348166           -0.776201
 C            4.992165           -0.251092           -0.796298
 C            5.703374           -0.072526            0.404072
 C            7.150402            0.052446            0.382996
 C            8.195608           -0.368523            1.188075
 C            8.266243           -1.121629            2.407508
 C            9.486859           -1.371202            2.955169
 C           10.707543           -0.899580            2.336176
 C           10.690034           -0.184374            1.176640
 C            9.427418            0.100703            0.560071
 C            9.055224            0.782880           -0.588468
 C            9.750710            1.498353           -1.644281
 C            9.188553            2.662184           -2.198802
 C            9.865993            3.349625           -3.207861
 C           11.099421            2.880978           -3.672007
 C           11.655127            1.718875           -3.127230
 C           10.987684            1.025226           -2.115211
 O            7.658725            0.763350           -0.714044
 C            5.010268           -0.003072            1.625108
 C            3.618688           -0.096643            1.641186
 C            0.682731            0.857600            0.298050
 C            1.316228            2.130250            0.113896
 C            0.583493            3.284338           -0.049788
 C            1.217999            4.580666           -0.244724
 C            0.476214            5.702823           -0.403621
 C           -0.971476            5.642826           -0.383354
 C           -1.612550            4.462107           -0.205834
 C           -0.867014            3.223610           -0.030771
 C           -1.496195            2.012768            0.149393
 C           -0.754188            0.797374            0.315754
 C           -3.566550           -0.385944            1.728492
 C           -4.961174           -0.394728            1.745489
 C           -8.127088           -0.971058            1.382841
 C           -8.123158           -1.721105            2.606077
 C           -9.312361           -2.042747            3.183036
 H          -11.484640           -1.946333            3.111231
 H          -11.566932           -0.634607            0.974367
 H           -8.436077            2.395254           -1.651496
 H           -9.757539            3.542344           -3.424482
 H          -11.914543            2.570540           -4.194481
 H          -12.746622            0.446343           -3.202708
 H          -11.436346           -0.702032           -1.430576
 H           -5.542238           -0.754185           -1.605619
 H           -3.049054           -0.748436           -1.630690
 H           -2.373594           -2.945082            0.835123
 H           -2.273681           -5.393666            1.147967
 H           -0.907086           -7.466976            1.403744
 H            1.553104           -7.364315            1.367901
 H            2.734217           -5.184381            1.076171
 H            2.620842           -2.736578            0.768349
 H            3.048250           -0.487109           -1.706137
 H            5.535060           -0.310330           -1.740544
 H            7.341252           -1.474543            2.856745
 H            9.583750           -1.935804            3.882751
 H           11.646253           -1.141245            2.834003
 H           11.597691            0.182000            0.702948
 H            8.225594            3.021019           -1.835987
 H            9.431182            4.253302           -3.634053
 H           11.624955            3.418576           -4.459311
 H           12.610886            1.347815           -3.495790
 H           11.416635            0.115738           -1.698191
 H            5.559621            0.136934            2.555465
 H            3.077652           -0.032011            2.586166
 H            2.407382            2.169985            0.104359
 H            2.307629            4.608668           -0.257963
 H            0.940890            6.677740           -0.550833
 H           -1.519842            6.575153           -0.515512
 H           -2.700552            4.399481           -0.188630
 H           -2.586788            1.961197            0.167427
 H           -3.009348           -0.278395            2.659855
 H           -5.497212           -0.291957            2.688698
 H           -7.167816           -2.014408            3.035346
 H           -9.353420           -2.607281            4.114529

