102

 C           -3.969443           -3.077486           -1.463016
 C           -5.130622           -2.490304           -1.063328
 C           -5.071891           -1.222816           -0.393491
 C           -6.040909           -0.366495            0.105347
 C           -7.489583           -0.372284            0.193309
 C           -8.195808            0.839669            0.308252
 C           -9.588885            0.830505            0.386243
 C          -10.287511           -0.381118            0.351969
 C           -9.588408           -1.587258            0.242278
 C           -8.194065           -1.588812            0.165091
 O           -5.421069            0.776590            0.640923
 C           -4.040965            0.617540            0.480030
 C           -3.246003            1.726160            0.993145
 C           -2.243601            1.485104            1.946994
 C           -1.468509            2.545629            2.421385
 C           -1.694588            3.844910            1.955583
 C           -2.700839            4.087006            1.014592
 C           -3.479640            3.032447            0.532570
 C           -3.779267           -0.587113           -0.151699
 C           -2.578928           -1.250113           -0.596433
 C           -1.261077           -0.610532           -0.370431
 C           -0.478819           -0.999277            0.737768
 C           -0.924914           -1.999259            1.663257
 C           -0.164922           -2.366694            2.750340
 C           -0.606811           -3.384859            3.693202
 C            0.159041           -3.730017            4.756288
 C            1.439319           -3.090804            4.985490
 C            1.897336           -2.136422            4.139811
 C            1.120169           -1.729254            2.977600
 C            1.568820           -0.768157            2.100507
 C            0.795918           -0.371195            0.960258
 C            1.250237            0.619408            0.063751
 C            2.564153            1.265032            0.296544
 C            2.658586            2.483781            0.907044
 C            3.936600            3.112208            1.151410
 C            5.106216            2.513600            0.795966
 C            5.061897            1.227670            0.161237
 C            6.040618            0.364627           -0.305001
 C            7.490973            0.358347           -0.364588
 C            8.149237           -0.406450           -1.345986
 C            9.543231           -0.422223           -1.399072
 C           10.290609            0.321623           -0.479387
 C            9.639146            1.084145            0.495086
 C            8.243940            1.105280            0.557978
 O            5.430733           -0.774702           -0.859203
 C            4.047293           -0.612037           -0.734064
 C            3.269523           -1.727132           -1.257625
 C            2.253582           -1.495722           -2.199147
 C            1.497920           -2.566932           -2.680760
 C            1.756678           -3.867289           -2.235130
 C            2.777960           -4.099896           -1.307925
 C            3.537912           -3.034921           -0.819153
 C            3.773345            0.594999           -0.111796
 C            0.467894            1.007434           -1.044657
 C            0.911728            2.010370           -1.968031
 C            0.147189            2.384926           -3.049438
 C            0.584012            3.411428           -3.985673
 C           -0.187728            3.766365           -5.041246
 C           -1.468383            3.128025           -5.269873
 C           -1.920585            2.164044           -4.431948
 C           -1.138044            1.747827           -3.276432
 C           -1.582138            0.779468           -2.405027
 C           -0.806671            0.379180           -1.267493
 C           -2.686045           -2.455981           -1.229566
 H           -3.972353           -4.037726           -1.977167
 H           -6.104246           -2.942575           -1.239754
 H           -7.646005            1.781154            0.338345
 H          -10.133119            1.769843            0.473519
 H          -11.374195           -0.384958            0.413080
 H          -10.132321           -2.530440            0.220340
 H           -7.652799           -2.531485            0.091950
 H           -2.069396            0.471223            2.311578
 H           -0.685435            2.355714            3.154573
 H           -1.086366            4.668765            2.325206
 H           -2.875247            5.098678            0.651879
 H           -4.262282            3.216435           -0.202570
 H           -1.893649           -2.471579            1.484928
 H           -1.571969           -3.855088            3.507832
 H           -0.159807           -4.491441            5.466343
 H            2.012878           -3.405593            5.855776
 H            2.856614           -1.644750            4.298678
 H            2.536628           -0.286809            2.260192
 H            1.762730            3.015779            1.226827
 H            3.927875            4.088629            1.634346
 H            6.074954            2.976955            0.969708
 H            7.561136           -0.985834           -2.059259
 H           10.049715           -1.016194           -2.158481
 H           11.378107            0.304005           -0.520877
 H           10.221863            1.660358            1.212333
 H            7.741062            1.690763            1.326501
 H            2.053660           -0.481674           -2.549623
 H            0.704405           -2.384755           -3.404375
 H            1.162484           -4.699002           -2.609514
 H            2.978877           -5.112206           -0.961126
 H            4.334373           -3.210947           -0.096378
 H            1.881961            2.480426           -1.791587
 H            1.549957            3.880600           -3.801168
 H            0.126641            4.534799           -5.745783
 H           -2.046640            3.450569           -6.134168
 H           -2.879235            1.671735           -4.592065
 H           -2.548573            0.295914           -2.566236
 H           -1.797525           -2.981079           -1.579432

