100

 C           -5.012426            6.799994            2.694950
 C           -6.402491            6.458600            2.934088
 C           -6.857415            5.200965            2.732853
 C           -5.951492            4.151959            2.266729
 N           -6.437614            2.927290            2.080225
 C           -5.581786            1.921064            1.633429
 C           -6.115735            0.635118            1.438385
 C           -5.296504           -0.405108            0.984730
 C           -5.784906           -1.733303            0.759857
 C           -4.940000           -2.717094            0.303294
 C           -5.385111           -4.076304            0.051051
 C           -4.522369           -5.013863           -0.406627
 C           -3.133942           -4.688961           -0.652429
 C           -2.645195           -3.439610           -0.434073
 C           -1.214595           -3.145017           -0.691255
 C           -0.819735           -2.657528           -1.954988
 C           -1.775816           -2.332420           -2.971991
 C           -1.384484           -1.875026           -4.210052
 C           -2.348313           -1.541106           -5.249283
 C           -1.939993           -1.094900           -6.461777
 C           -0.529994           -0.935319           -6.755196
 C            0.408477           -1.227035           -5.822339
 C            0.028287           -1.711814           -4.502844
 C            0.963711           -2.012524           -3.538560
 C            0.579914           -2.493172           -2.243995
 C            1.535262           -2.819927           -1.258194
 C            2.978474           -2.769287           -1.596059
 C            3.590996           -3.852725           -2.142005
 C            4.996953           -3.836387           -2.483887
 C            5.752398           -2.733663           -2.268590
 C            5.170962           -1.537054           -1.685924
 C            5.902970           -0.398223           -1.445727
 C            5.281074            0.753759           -0.862871
 C            5.981129            1.934764           -0.589938
 C            5.317958            3.031339           -0.011339
 N            6.057449            4.185004            0.247660
 C            5.447514            5.232168            0.797681
 C            6.231954            6.436511            1.067596
 C            5.649310            7.521778            1.626111
 C            4.239569            7.521879            1.970561
 C            3.465370            6.434020            1.742953
 C            4.023871            5.232203            1.145876
 C            3.288280            4.099173            0.892636
 C            3.909766            2.948530            0.301890
 C            3.209867            1.768523            0.026309
 C            3.874316            0.668768           -0.549415
 N            3.138849           -0.488227           -0.798913
 C            3.746875           -1.541361           -1.336438
 C            1.136994           -3.236976            0.029461
 C            2.090542           -3.517587            1.062338
 C            1.697179           -3.944204            2.310648
 C            2.658165           -4.235109            3.365528
 C            2.247627           -4.656789            4.585989
 C            0.837804           -4.825384            4.875366
 C           -0.098464           -4.563814            3.931602
 C            0.284411           -4.111684            2.601291
 C           -0.648983           -3.841119            1.626502
 C           -0.262554           -3.402658            0.317754
 C           -3.534860           -2.376137            0.058983
 N           -3.048785           -1.155453            0.263075
 C           -3.899777           -0.151493            0.721493
 C           -3.364425            1.135374            0.921602
 C           -4.183980            2.176850            1.371367
 C           -3.697571            3.509803            1.586097
 C           -4.547718            4.496717            2.024885
 C           -4.129361            5.868382            2.262420
 H           -4.710932            7.830999            2.876456
 H           -7.063845            7.253005            3.280981
 H           -7.896893            4.913544            2.903273
 H           -7.174914            0.464658            1.643911
 H           -6.837806           -1.941162            0.956984
 H           -6.432957           -4.305849            0.242759
 H           -4.840884           -6.037521           -0.603387
 H           -2.485350           -5.486342           -1.020751
 H           -2.835806           -2.441919           -2.737541
 H           -3.404545           -1.662406           -5.011748
 H           -2.651094           -0.842507           -7.246479
 H           -0.257853           -0.573677           -7.745342
 H            1.471993           -1.108577           -6.026151
 H            2.026471           -1.874813           -3.743628
 H            3.033092           -4.770462           -2.338244
 H            5.418341           -4.742833           -2.918501
 H            6.811990           -2.705958           -2.521332
 H            6.965071           -0.348518           -1.690818
 H            7.045571            2.020468           -0.819520
 H            7.289433            6.405798            0.797623
 H            6.218728            8.427924            1.834705
 H            3.832636            8.428138            2.417677
 H            2.406132            6.422776            1.998280
 H            2.225341            4.048338            1.133651
 H            2.143912            1.681000            0.253458
 H            3.148842           -3.371053            0.840880
 H            3.713873           -4.099003            3.133880
 H            2.956642           -4.878691            5.381791
 H            0.563825           -5.165889            5.872452
 H           -1.162258           -4.681329            4.134598
 H           -1.713454           -3.945320            1.842332
 H           -2.303478            1.303061            0.717369
 H           -2.643903            3.715359            1.391209
 H           -3.083809            6.113995            2.078617

