100

 C           14.957374            0.124672           -0.900660
 C           14.638673            1.531449           -1.059358
 C           13.356866            1.963472           -1.049988
 C           12.257303            1.015100           -0.878830
 N           11.009107            1.478480           -0.874826
 C            9.955657            0.580137           -0.712087
 C            8.642519            1.086227           -0.708192
 C            7.554698            0.221133           -0.545794
 C            6.196453            0.682082           -0.527630
 C            5.163758           -0.209575           -0.361310
 C            3.768948            0.188409           -0.322203
 C            2.786565           -0.733906           -0.148982
 C            1.357566           -0.341836           -0.089458
 C            0.593639           -0.309949           -1.274573
 C            1.155020           -0.665064           -2.545005
 C            0.407878           -0.625771           -3.700155
 C            0.966482           -0.993945           -4.993774
 C            0.214839           -0.936263           -6.119384
 C           -1.167275           -0.503452           -6.065541
 C           -1.738908           -0.156482           -4.887283
 C           -0.982150           -0.206853           -3.643867
 C           -1.544518            0.128278           -2.433153
 C           -0.789254            0.082753           -1.215301
 C           -1.364214            0.414256            0.029519
 C           -2.797520            0.789331            0.095357
 C           -3.766365           -0.149657            0.255630
 C           -5.165645            0.228577            0.317639
 C           -6.184009           -0.680670            0.476721
 C           -7.547331           -0.238101            0.528933
 C           -8.620701           -1.121728            0.687304
 C           -9.939660           -0.633216            0.730987
 N          -10.978025           -1.549945            0.887954
 C          -12.231633           -1.103598            0.930290
 C          -13.315316           -2.071451            1.093575
 C          -14.602095           -1.657157            1.140885
 C          -14.941779           -0.250555            1.032277
 C          -13.978703            0.689677            0.879621
 C          -12.575286            0.316646            0.819903
 C          -11.556422            1.226292            0.665155
 C          -10.193069            0.783877            0.613929
 C           -9.118892            1.667716            0.455918
 C           -7.800645            1.179215            0.410747
 N           -6.761559            2.095921            0.249557
 C           -5.509284            1.648596            0.204328
 C           -4.423161            2.613942            0.033524
 C           -3.137202            2.201693           -0.017660
 C           -0.598847            0.386677            1.214692
 C           -1.159090            0.743024            2.485119
 C           -0.411356            0.702951            3.640310
 C           -0.968447            1.071713            4.934349
 C           -0.216390            1.011341            6.059760
 C            1.164472            0.574972            6.005446
 C            1.734768            0.228113            4.826454
 C            0.977633            0.281582            3.583649
 C            1.539048           -0.053672            2.372423
 C            0.783400           -0.007057            1.155302
 C            3.105502           -2.148752           -0.007790
 C            4.386147           -2.579007           -0.036333
 C            5.486842           -1.630990           -0.210106
 N            6.733648           -2.095076           -0.222346
 C            7.787281           -1.195622           -0.385619
 C            9.099507           -1.701759           -0.390049
 C           10.188085           -0.836081           -0.549549
 C           11.546133           -1.297068           -0.558713
 C           12.579844           -0.405399           -0.719035
 C           13.979084           -0.797923           -0.738502
 H           16.009783           -0.157118           -0.917210
 H           15.470485            2.225010           -1.186024
 H           13.086569            3.014918           -1.166815
 H            8.489427            2.160864           -0.832954
 H            6.007472            1.750424           -0.646542
 H            3.539733            1.249234           -0.432878
 H            2.201949           -0.973853           -2.579289
 H            2.006814           -1.317149           -5.018139
 H            0.620904           -1.211080           -7.091930
 H           -1.722628           -0.468300           -7.001807
 H           -2.776734            0.170809           -4.831002
 H           -2.589767            0.440464           -2.381824
 H           -3.522265           -1.209496            0.341722
 H           -5.979544           -1.749099            0.565633
 H           -8.451689           -2.197391            0.778368
 H          -13.029395           -3.122312            1.172646
 H          -15.422311           -2.365349            1.261716
 H          -15.997162            0.016417            1.078317
 H          -14.221616            1.748865            0.796995
 H          -11.760602            2.294620            0.578396
 H           -9.289491            2.742932            0.365642
 H           -4.707532            3.665638           -0.048827
 H           -2.312977            2.906152           -0.144657
 H           -2.205635            1.053020            2.520210
 H           -2.008036            1.397165            4.959573
 H           -0.621709            1.286375            7.032572
 H            1.720075            0.537050            6.941488
 H            2.771686           -0.101888            4.769283
 H            2.583985           -0.366982            2.321037
 H            2.270295           -2.839683            0.121330
 H            4.655304           -3.632768            0.067799
 H            9.253984           -2.776186           -0.266998
 H           11.734173           -2.364833           -0.435773
 H           14.205967           -1.857091           -0.618057

