100

 C           11.922574           -0.969742            2.558332
 C           11.463050           -0.708722            1.311411
 C           10.037153           -0.611769            1.047254
 C            9.516839           -0.350980           -0.197218
 C            8.096779           -0.272632           -0.386346
 C            7.516533           -0.015076           -1.633008
 C            6.116709            0.045461           -1.763229
 N            5.580901            0.297391           -3.024793
 C            4.257693            0.354643           -3.167061
 C            3.713373            0.614470           -4.497985
 C            2.376034            0.676516           -4.690083
 C            1.451607            0.494050           -3.591273
 C            1.897287            0.253941           -2.329149
 C            0.934516            0.082735           -1.211256
 C            0.503631            1.215802           -0.488661
 C            0.984947            2.531381           -0.791564
 C            0.558094            3.635586           -0.089114
 C            1.040290            4.976149           -0.390851
 C            0.600862            6.048907            0.310366
 C           -0.362075            5.889568            1.381726
 C           -0.840355            4.664210            1.706155
 C           -0.403209            3.475272            0.987948
 C           -0.873457            2.219840            1.300340
 C           -0.443122            1.056227            0.582889
 C           -0.922934           -0.232032            0.901179
 C           -1.867457           -0.401484            2.034804
 C           -3.301112           -0.257413            1.795140
 C           -3.847647            0.030110            0.566525
 C           -5.267856            0.162845            0.415012
 C           -5.873050            0.461350           -0.811944
 C           -7.271968            0.586010           -0.900609
 N           -7.832378            0.889549           -2.141350
 C           -9.153998            1.013031           -2.239833
 C           -9.736758            1.333612           -3.542567
 C          -11.075763            1.466560           -3.680635
 C          -11.967885            1.296197           -2.548645
 C          -11.484075            0.999005           -1.319097
 C          -10.056332            0.841948           -1.097506
 C           -9.512116            0.541782            0.127753
 C           -8.091837            0.402542            0.274483
 C           -7.487986            0.101414            1.500048
 C           -6.089003           -0.019559            1.588778
 N           -5.529510           -0.315048            2.830445
 C           -4.206465           -0.428064            2.934579
 C           -3.637963           -0.734099            4.245479
 C           -2.299708           -0.853516            4.399841
 C           -1.398716           -0.684719            3.279688
 C           -0.497629           -1.363673            0.174149
 C           -0.985004           -2.678363            0.471923
 C           -0.563509           -3.781678           -0.234710
 C           -1.054880           -5.120614            0.059638
 C           -0.621703           -6.192791           -0.646161
 C            0.343954           -6.034433           -1.715370
 C            0.831190           -4.810756           -2.032846
 C            0.400303           -3.622119           -1.309987
 C            0.877636           -2.368051           -1.616787
 C            0.450068           -1.204319           -0.897204
 C            3.328505            0.166996           -2.049931
 C            3.851387           -0.080975           -0.802503
 C            5.270761           -0.153481           -0.610016
 C            5.852147           -0.408817            0.638080
 C            7.251699           -0.473429            0.767930
 N            7.787943           -0.735865            2.028608
 C            9.109994           -0.803510            2.166231
 C            9.667218           -1.082056            3.489682
 C           11.005845           -1.159768            3.667371
 H           12.988946           -1.045362            2.768498
 H           12.139585           -0.563964            0.469456
 H           10.165418           -0.200118           -1.061421
 H            8.137717            0.140313           -2.517994
 H            4.433441            0.751182           -5.307212
 H            1.951484            0.867491           -5.676793
 H            0.385285            0.558127           -3.810252
 H            1.707585            2.644109           -1.602785
 H            1.764038            5.079320           -1.198936
 H            0.953668            7.056303            0.093126
 H           -0.682809            6.786001            1.910922
 H           -1.564458            4.527832            2.509018
 H           -1.593843            2.090853            2.111135
 H           -3.213208            0.164579           -0.314473
 H           -5.269685            0.602100           -1.712363
 H           -9.042189            1.456214           -4.376035
 H          -11.526455            1.705305           -4.644458
 H          -13.035946            1.416242           -2.727052
 H          -12.142032            0.868443           -0.460281
 H          -10.141836            0.404543            1.008001
 H           -8.090222           -0.041966            2.400016
 H           -4.341477           -0.856477            5.071379
 H           -1.856797           -1.080171            5.370811
 H           -0.330095           -0.792177            3.468845
 H           -1.709736           -2.790217            1.281398
 H           -1.781311           -5.222879            0.865460
 H           -0.981896           -7.198852           -0.434933
 H            0.659160           -6.930443           -2.248597
 H            1.557370           -4.675393           -2.833990
 H            1.600480           -2.239303           -2.425402
 H            3.198304           -0.228149            0.062686
 H            5.229149           -0.561762            1.522972
 H            8.954009           -1.220373            4.304745
 H           11.437792           -1.367193            4.646915

