102

 C           14.054102           -3.590328           -0.559626
 C           13.240778           -4.730174           -0.939843
 C           11.891616           -4.642246           -0.983383
 C           11.219257           -3.388397           -0.645741
 N            9.889850           -3.341303           -0.700426
 C            9.241986           -2.149107           -0.378366
 C            7.838564           -2.111349           -0.437973
 C            7.144817           -0.935299           -0.119242
 C            5.713757           -0.877871           -0.168976
 C            5.034003            0.275326            0.151768
 C            3.581892            0.341205            0.117146
 C            2.924466            1.483550            0.447586
 C            1.442417            1.549892            0.435491
 C            0.724168            1.183879            1.593702
 C            1.388539            0.769187            2.794364
 C            0.684063            0.392633            3.915394
 C            1.349604           -0.039415            5.136469
 C            0.635071           -0.406639            6.227441
 C           -0.813771           -0.381072            6.206846
 C           -1.483149            0.011414            5.096286
 C           -0.767871            0.419772            3.895418
 C           -1.426322            0.823845            2.756303
 C           -0.713761            1.213016            1.575049
 C           -1.386078            1.608752            0.399551
 C           -2.869325            1.605702            0.372155
 C           -3.564691            0.492838            0.019904
 C           -5.018563            0.490663            0.006835
 C           -5.736532           -0.630716           -0.341452
 C           -7.169626           -0.624188           -0.344246
 C           -7.902405           -1.766733           -0.694821
 C           -9.307479           -1.741245           -0.689498
 N           -9.994964           -2.901365           -1.044055
 C          -11.326342           -2.888383           -1.042132
 C          -12.040304           -4.108677           -1.414975
 C          -13.392732           -4.135568           -1.425507
 C          -14.168402           -2.962229           -1.069235
 C          -13.559433           -1.804984           -0.715423
 C          -12.110183           -1.704624           -0.682603
 C          -11.437996           -0.557109           -0.331818
 C          -10.005245           -0.531635           -0.321764
 C           -9.265694            0.606766            0.027132
 C           -7.861635            0.584597            0.023863
 C           -7.092721            1.740619            0.380946
 C           -5.716576            1.711613            0.378368
 C           -4.919140            2.875668            0.741132
 C           -3.566237            2.828873            0.739506
 C           -0.667925            1.987615           -0.753671
 C           -1.333831            2.391294           -1.957084
 C           -0.630771            2.743422           -3.086680
 C           -1.298548            3.145070           -4.316804
 C           -0.586098            3.489451           -5.416476
 C            0.862830            3.465173           -5.397037
 C            1.534241            3.096022           -4.279606
 C            0.821410            2.716545           -3.067775
 C            1.481613            2.336575           -1.921224
 C            0.770377            1.958292           -0.735438
 C            3.662065            2.676759            0.833669
 C            5.015087            2.664834            0.877975
 C            5.772035            1.465560            0.544884
 C            7.147267            1.433684            0.596012
 C            7.876148            0.243072            0.270687
 C            9.278852            0.202438            0.326781
 C            9.978994           -0.969816            0.011026
 C           11.408606           -1.059686            0.056662
 C           12.041219           -2.238604           -0.261534
 C           13.484658           -2.404397           -0.236598
 H           15.134678           -3.727167           -0.544624
 H           13.757337           -5.657728           -1.188199
 H           11.253218           -5.481683           -1.265305
 H            7.297559           -3.012708           -0.735017
 H            5.173712           -1.777375           -0.466954
 H            3.041344           -0.558900           -0.178523
 H            2.480538            0.754814            2.801725
 H            2.438979           -0.056908            5.134470
 H            1.121887           -0.731269            7.145913
 H           -1.337941           -0.688650            7.110471
 H           -2.571979            0.032352            5.062754
 H           -2.517873            0.851415            2.733597
 H           -3.054548           -0.429793           -0.260031
 H           -5.226579           -1.552869           -0.622872
 H           -7.391520           -2.690606           -0.975714
 H          -11.429699           -4.974669           -1.677614
 H          -13.940310           -5.037232           -1.701056
 H          -15.253768           -3.050015           -1.097769
 H          -14.130665           -0.917141           -0.445552
 H          -11.977661            0.349297           -0.056345
 H           -9.787884            1.522463            0.305401
 H           -7.628095            2.649056            0.657371
 H           -5.455351            3.784644            1.014439
 H           -2.959060            3.693060            1.009914
 H           -2.425773            2.410776           -1.960913
 H           -2.388064            3.154234           -4.315820
 H           -1.074480            3.791187           -6.341852
 H            1.385205            3.751352           -6.308729
 H            2.623005            3.068663           -4.250242
 H            2.573184            2.314060           -1.897167
 H            3.084788            3.567377            1.082664
 H            5.581338            3.550888            1.165608
 H            7.712177            2.318868            0.888750
 H            9.830652            1.095460            0.621277
 H           11.977542           -0.176462            0.348208
 H           14.084408           -1.541152            0.050817

