102

 C            4.637429            6.038828            1.915556
 C            3.209307            5.965719            1.666213
 C            2.611666            4.790877            1.363988
 C            3.397789            3.559674            1.280608
 N            2.775517            2.424966            0.976291
 C            3.511328            1.243942            0.892499
 C            4.934295            1.233180            1.135493
 C            5.572553            2.476628            1.460771
 C            4.838725            3.635026            1.536338
 C            5.414180            4.930889            1.854939
 C            5.642454            0.030835            1.044624
 C            4.987984           -1.168765            0.719412
 C            5.712947           -2.399959            0.622532
 C            5.079881           -3.579754            0.300847
 C            5.802640           -4.839279            0.193874
 C            5.158106           -5.987946           -0.123861
 C            3.729262           -5.992982           -0.364490
 C            3.008895           -4.848656           -0.278034
 C            3.647503           -3.583490            0.057108
 C            2.933590           -2.409052            0.145549
 C            3.569796           -1.167998            0.474716
 C            2.844107            0.041720            0.560119
 C            1.383971            0.060841            0.290302
 C            0.474077           -0.154733            1.347051
 C            0.918829           -0.391802            2.689112
 C            0.028416           -0.598602            3.718205
 C            0.470318           -0.833721            5.085813
 C           -0.424427           -1.025548            6.085064
 C           -1.848266           -1.004978            5.817364
 C           -2.313107           -0.794724            4.562159
 C           -1.398375           -0.580295            3.449450
 C           -1.847759           -0.359650            2.167260
 C           -0.939640           -0.140967            1.079728
 C           -1.396819            0.082987           -0.236583
 C           -2.854516            0.063031           -0.519432
 C           -3.492116           -1.155337           -0.846869
 C           -2.768443           -2.390042           -0.912493
 C           -3.392606           -3.574828           -1.233113
 C           -2.662664           -4.832879           -1.301705
 C           -3.293232           -5.989000           -1.619939
 C           -4.714690           -6.002656           -1.900509
 C           -5.442334           -4.860618           -1.850113
 C           -4.817995           -3.588807           -1.513774
 C           -5.535200           -2.414378           -1.456077
 C           -4.903800           -1.172291           -1.124773
 C           -5.640719            0.022591           -1.069218
 C           -5.020965            1.233925           -0.746361
 C           -5.743860            2.472067           -0.683558
 C           -5.095566            3.639738           -0.363470
 C           -5.758836            4.930265           -0.282285
 C           -5.064607            6.047918            0.039552
 C           -3.640072            5.991080            0.312596
 C           -2.963164            4.821809            0.253617
 C           -3.657226            3.580257           -0.089235
 N           -2.957489            2.450860           -0.138630
 C           -3.605015            1.260228           -0.464679
 C           -0.487193            0.314371           -1.291159
 C           -0.931417            0.560867           -2.631489
 C           -0.041128            0.787706           -3.656821
 C           -0.482442            1.049340           -5.019625
 C            0.412182            1.277364           -6.011481
 C            1.835652            1.262795           -5.741583
 C            2.300304            1.020790           -4.491970
 C            1.385165            0.773479           -3.386596
 C            1.834382            0.534322           -2.107522
 C            0.926152            0.301880           -1.023330
 H            5.056253            7.016123            2.152238
 H            2.639311            6.892394            1.732129
 H            1.539967            4.701020            1.170896
 H            6.647340            2.475912            1.643554
 H            6.486869            4.971768            2.040200
 H            6.716953            0.023759            1.227060
 H            6.786145           -2.380439            0.809988
 H            6.875942           -4.819032            0.378188
 H            5.688506           -6.935576           -0.207624
 H            3.262639           -6.944323           -0.614992
 H            1.933941           -4.836141           -0.455549
 H            1.855902           -2.401643           -0.035775
 H            1.992927           -0.395166            2.882812
 H            1.543696           -0.845284            5.270333
 H           -0.105720           -1.198710            7.111263
 H           -2.522628           -1.162915            6.656930
 H           -3.380112           -0.775496            4.344234
 H           -2.918544           -0.336707            1.956975
 H           -1.696603           -2.370111           -0.699430
 H           -1.594635           -4.804862           -1.087482
 H           -2.757913           -6.935560           -1.674478
 H           -5.171026           -6.959299           -2.151237
 H           -6.511360           -4.855457           -2.058273
 H           -6.604850           -2.407933           -1.663285
 H           -6.709626            0.004468           -1.281175
 H           -6.813175            2.459884           -0.895768
 H           -6.827846            4.959118           -0.489668
 H           -5.549622            7.021135            0.103824
 H           -3.139170            6.925350            0.566195
 H           -1.891683            4.744354            0.452981
 H           -2.005652            0.576740           -2.823798
 H           -1.555554            1.057487           -5.205769
 H            0.093775            1.477623           -7.032760
 H            2.509868            1.452886           -6.574576
 H            3.366933            1.006810           -4.271904
 H            2.904740            0.528264           -1.894235

