92

 C           -7.631192            3.623830           -4.053916
 C           -6.331627            3.341559           -3.855268
 C           -6.053341            2.672573           -2.580981
 C           -4.849759            2.249748           -2.088844
 C           -4.796372            1.593384           -0.808887
 C           -3.573962            1.113533           -0.293446
 C           -3.500378            0.429554            0.920585
 C           -4.684225            0.407951            1.744856
 C           -5.909299            0.840228            1.232352
 C           -5.997784            1.413425           -0.049969
 C           -7.257283            1.864085           -0.588269
 C           -7.260324            2.463777           -1.806249
 S           -8.637067            3.098710           -2.697088
 C           -4.562842            0.062122            3.144244
 C           -3.312502           -0.068689            3.643041
 S           -2.876363           -0.236899            5.339840
 C           -1.150812           -0.166336            4.982097
 C           -0.917265           -0.108058            3.658392
 C           -2.117316           -0.113564            2.817290
 C           -2.244993           -0.144482            1.433647
 C           -1.217625           -0.686683            0.557536
 C           -0.028744           -1.327486            1.050316
 C           -0.060318           -2.248123            2.125136
 C            1.071279           -2.949025            2.520011
 C            1.037618           -3.909399            3.606351
 C            2.151729           -4.605405            3.952050
 C            3.393360           -4.406902            3.241585
 C            3.470301           -3.521260            2.214393
 C            2.308873           -2.752376            1.809235
 C            2.349957           -1.870179            0.737189
 C            1.210749           -1.133147            0.333238
 C            1.187637           -0.310460           -0.841785
 C            2.243807            0.588966           -1.280398
 C            2.121699            1.399449           -2.403068
 C            0.925189            1.925469           -3.066002
 C            1.159124            2.612788           -4.198710
 S            2.880452            2.686998           -4.575804
 C            3.319694            1.853260           -3.089368
 C            4.573188            1.629958           -2.633422
 C            4.706156            1.123907           -1.284674
 C            3.522690            0.723786           -0.562853
 C            3.624524            0.603264            0.823517
 C            4.865734            0.667644            1.491322
 C            4.945548            0.493834            2.918011
 C            6.165049            0.530289            3.535492
 C            6.469859            0.365568            4.959866
 C            7.779533            0.447485            5.253330
 S            8.763483            0.735852            3.812054
 C            7.362635            0.750045            2.749327
 C            7.335716            0.931924            1.404248
 C            6.059119            0.901703            0.734608
 C            5.948057            1.148155           -0.646550
 C           -0.017896           -0.520541           -1.592485
 C           -0.012044           -0.675616           -3.001222
 C           -1.165794           -0.983324           -3.706623
 C           -1.159390           -1.162936           -5.146464
 C           -2.297486           -1.492595           -5.809753
 C           -3.539545           -1.676862           -5.095005
 C           -3.592359           -1.524295           -3.746611
 C           -2.404400           -1.169458           -2.992263
 C           -2.422625           -1.044381           -1.610527
 C           -1.257846           -0.712014           -0.874299
 H           -8.098056            4.105257           -4.897773
 H           -5.525206            3.565805           -4.542754
 H           -3.925433            2.388192           -2.647606
 H           -2.662609            1.310094           -0.865283
 H           -6.806550            0.771499            1.848117
 H           -8.165226            1.714343           -0.006580
 H           -5.460323           -0.017558            3.753654
 H           -0.440902           -0.154118            5.792940
 H            0.068589           -0.003802            3.213241
 H           -1.018170           -2.453037            2.612038
 H            0.092274           -4.049116            4.129868
 H            2.141101           -5.328268            4.766435
 H            4.257942           -4.990131            3.555444
 H            4.400168           -3.360054            1.669306
 H            3.266184           -1.787503            0.146257
 H           -0.055869            1.799622           -2.615953
 H            0.452648            3.107228           -4.845148
 H            5.467729            1.870675           -3.203558
 H            2.721759            0.477635            1.428051
 H            4.027397            0.326960            3.479191
 H            5.672908            0.194523            5.673173
 H            8.265265            0.362032            6.211792
 H            8.236859            1.102045            0.817589
 H            6.842414            1.403120           -1.215873
 H            0.942753           -0.609306           -3.530844
 H           -0.214075           -1.022700           -5.669913
 H           -2.307587           -1.627867           -6.890260
 H           -4.423985           -1.941981           -5.672534
 H           -4.521927           -1.658589           -3.193736
 H           -3.342250           -1.269332           -1.063541

