86

 C           -7.074423            5.437087            1.700231
 C           -7.418750            4.129918            1.723200
 C           -6.430725            3.083266            1.474959
 C           -6.761391            1.757331            1.494283
 C           -5.777836            0.724976            1.249976
 C           -6.119719           -0.614030            1.272589
 C           -5.132938           -1.610338            1.033298
 C           -5.285734           -2.992526            1.018368
 S           -3.801380           -3.743945            0.688955
 C           -2.914334           -2.290562            0.555611
 C           -1.486005           -2.297786            0.271740
 C           -1.036708           -2.281854           -1.068919
 C           -1.952288           -2.201361           -2.168178
 C           -1.514540           -2.183718           -3.473423
 C           -2.438205           -2.107729           -4.596423
 C           -1.983346           -2.094143           -5.872624
 C           -0.562723           -2.148474           -6.153144
 C            0.340189           -2.213918           -5.144900
 C           -0.091235           -2.238016           -3.754422
 C            0.806550           -2.306245           -2.712775
 C            0.373382           -2.334836           -1.347154
 C            1.295638           -2.401072           -0.277042
 C            2.720961           -2.499445           -0.559048
 C            3.651006           -1.473417           -0.727509
 C            3.431332           -0.071045           -0.662403
 C            4.481691            0.805596           -0.856579
 C            4.284332            2.236935           -0.793918
 C            5.317006            3.111795           -0.984048
 C            5.126598            4.558222           -0.921343
 C            6.160030            5.408947           -1.112036
 C            7.495487            4.906416           -1.386391
 C            7.734578            3.577517           -1.456781
 C            6.662790            2.605038           -1.260027
 C            6.886779            1.258411           -1.326881
 C            5.821201            0.299937           -1.130391
 C            6.055757           -1.060606           -1.197851
 C            4.990659           -1.982599           -1.000352
 C            5.033290           -3.372425           -1.029052
 S            3.491259           -4.013528           -0.733165
 C            0.848580           -2.357209            1.063841
 C            1.767364           -2.350127            2.163605
 C            1.331717           -2.304389            3.468844
 C            2.258049           -2.299486            4.592367
 C            1.804704           -2.256168            5.868477
 C            0.383738           -2.208063            6.148562
 C           -0.521008           -2.204712            5.140063
 C           -0.091861           -2.254977            3.749543
 C           -0.991802           -2.252658            2.707750
 C           -0.561507           -2.305933            1.341940
 C           -3.758950           -1.200115            0.764067
 C           -3.429273            0.182069            0.742193
 C           -4.404689            1.131964            0.978028
 C           -4.094378            2.544576            0.963440
 C           -5.051523            3.491104            1.199772
 C           -4.746357            4.919127            1.188712
 C           -5.705984            5.841572            1.426278
 H           -7.803445            6.224748            1.884287
 H           -8.440441            3.811397            1.926811
 H           -7.783253            1.438014            1.696481
 H           -7.140778           -0.932194            1.472676
 H           -6.197400           -3.537562            1.187571
 H           -3.020557           -2.140988           -1.948135
 H           -3.502778           -2.062666           -4.368327
 H           -2.663996           -2.040207           -6.720775
 H           -0.252886           -2.132473           -7.196846
 H            1.411856           -2.250456           -5.338536
 H            1.879714           -2.327659           -2.915635
 H            2.421822            0.285795           -0.457143
 H            3.275540            2.595617           -0.588073
 H            4.119537            4.919247           -0.715041
 H            6.029247            6.488873           -1.067265
 H            8.287582            5.639410           -1.531442
 H            8.730212            3.185877           -1.661758
 H            7.882263            0.865847           -1.531628
 H            7.050236           -1.452205           -1.401460
 H            5.900354           -3.982713           -1.209567
 H            2.837201           -2.369620            1.943705
 H            3.323127           -2.331468            4.364606
 H            2.487129           -2.253900            6.716972
 H            0.075371           -2.172804            7.192233
 H           -1.592678           -2.164296            5.333206
 H           -2.063832           -2.197291            2.910548
 H           -2.396610            0.464760            0.536671
 H           -3.062590            2.829406            0.756238
 H           -3.716059            5.206531            0.981673
 H           -5.489343            6.908528            1.420746

