86

 C           -3.135291           -3.508154           -2.068769
 C           -4.414054           -3.083311           -1.960622
 C           -4.735192           -1.810866           -1.321744
 C           -6.027695           -1.377236           -1.209830
 C           -6.356389           -0.119346           -0.579147
 C           -7.666717            0.312546           -0.470456
 C           -7.960854            1.553517            0.154268
 C           -9.203878            2.151035            0.355760
 S           -9.008454            3.631714            1.149939
 C           -7.323206            3.550332            1.259076
 C           -6.867572            2.367151            0.679679
 C           -5.530809            1.903445            0.556968
 C           -5.266317            0.691102           -0.055639
 C           -3.912949            0.198933           -0.192833
 C           -3.636967           -0.996595           -0.796329
 C           -2.271844           -1.515066           -0.947692
 C           -1.125759           -0.720857           -0.433977
 C           -0.490914            0.213312           -1.280195
 C           -0.959604            0.463949           -2.611319
 C           -0.333410            1.368102           -3.439052
 C           -0.802243            1.629185           -4.792763
 C           -0.166594            2.520371           -5.591181
 C            0.998910            3.239307           -5.116987
 C            1.475745            3.035757           -3.865228
 C            0.832605            2.091017           -2.962799
 C            1.296689            1.870144           -1.685880
 C            0.657932            0.937496           -0.804678
 C            1.128483            0.715636            0.507229
 C            2.284084            1.500283            1.014152
 C            2.068761            2.681498            1.648649
 C            3.174362            3.472419            2.150664
 C            4.450464            3.053002            1.998518
 C            4.756349            1.793552            1.327316
 C            6.045999            1.365104            1.170686
 C            6.359065            0.119756            0.508060
 C            7.666637           -0.306268            0.352178
 C            7.944938           -1.534740           -0.303513
 C            9.182819           -2.124611           -0.553865
 S            8.967338           -3.590999           -1.368602
 C            7.279498           -3.513279           -1.424756
 C            6.838466           -2.342325           -0.810000
 C            5.504892           -1.885331           -0.638508
 C            5.256038           -0.684530            0.002965
 C            3.906260           -0.198309            0.187420
 C            3.645386            0.986529            0.818257
 C            0.492363           -0.216744            1.353874
 C            0.963088           -0.469589            2.684093
 C            0.334956           -1.371089            3.512980
 C            0.807211           -1.635870            4.864939
 C            0.168866           -2.523411            5.665157
 C           -1.003998           -3.233250            5.195650
 C           -1.483791           -3.026499            3.945605
 C           -0.836443           -2.087522            3.039996
 C           -1.300972           -1.866540            1.763391
 C           -0.658404           -0.938811            0.879428
 C           -2.042234           -2.709147           -1.552511
 H           -2.883530           -4.455799           -2.543178
 H           -5.245867           -3.672393           -2.344384
 H           -6.852652           -1.975017           -1.597251
 H           -8.489126           -0.285221           -0.858206
 H          -10.160169            1.756699            0.062874
 H           -6.718054            4.314108            1.714087
 H           -4.725337            2.519701            0.953169
 H           -3.109199            0.822586            0.206641
 H           -1.838913           -0.082264           -2.959997
 H           -1.680041            1.081387           -5.133826
 H           -0.507847            2.723023           -6.605114
 H            1.471708            3.942932           -5.800376
 H            2.350973            3.567820           -3.493742
 H            2.174357            2.407755           -1.319892
 H            1.060812            3.068579            1.797666
 H            2.934045            4.410137            2.650138
 H            5.291491            3.637253            2.369679
 H            6.880513            1.957816            1.545477
 H            8.498873            0.286986            0.725873
 H           10.146531           -1.732359           -0.283063
 H            6.662721           -4.270430           -1.875002
 H            4.689325           -2.496938           -1.020738
 H            3.092744           -0.817008           -0.199547
 H            1.845554            0.072977            3.030661
 H            1.690045           -1.094107            5.202876
 H            0.513346           -2.729633            6.677342
 H           -1.479737           -3.933036            5.880934
 H           -2.364654           -3.551619            3.577805
 H           -2.182138           -2.399640            1.399479
 H           -1.031428           -3.100292           -1.667807

