84

 C            7.042541           -2.575408            3.384269
 C            7.700681           -1.417238            2.965175
 C            7.010655           -0.434986            2.236447
 C            5.635443           -0.630670            1.929999
 C            4.974800           -1.813706            2.362502
 C            5.692583           -2.777354            3.088697
 C            3.569669           -1.985320            2.035062
 C            2.890771           -1.047867            1.332051
 C            3.534860            0.171652            0.872934
 C            2.848766            1.159811            0.137576
 C            1.415397            1.006338           -0.216078
 C            0.425263            1.538422            0.636958
 C            0.762681            2.196893            1.864844
 C           -0.203989            2.728555            2.687914
 C            0.129263            3.406272            3.933249
 C           -0.840081            3.920524            4.727961
 C           -2.236895            3.812036            4.357412
 C           -2.602053            3.193591            3.208620
 C           -1.604098            2.618987            2.317145
 C           -1.951282            1.983005            1.147056
 C           -0.961732            1.427752            0.271168
 C           -1.315612            0.786011           -0.934535
 C           -2.743906            0.704527           -1.330193
 C           -3.549398           -0.388017           -0.948568
 C           -3.040900           -1.491281           -0.150401
 C           -3.831770           -2.531744            0.204238
 C           -5.226606           -2.591755           -0.198042
 C           -6.058914           -3.663868            0.160928
 C           -7.394759           -3.685505           -0.245910
 C           -7.925196           -2.646793           -1.013878
 C           -7.118505           -1.560263           -1.389181
 C           -5.756584           -1.528201           -0.979797
 C           -4.912361           -0.417598           -1.357817
 C           -5.449575            0.641763           -2.139526
 C           -6.844264            0.580870           -2.541937
 C           -7.634071           -0.460834           -2.187587
 C           -4.620810            1.715793           -2.501711
 C           -3.286405            1.744044           -2.101026
 C           -0.326308            0.241058           -1.780675
 C           -0.664643           -0.421929           -3.005501
 C            0.302288           -0.941673           -3.835874
 C           -0.031568           -1.611769           -5.084929
 C            0.937453           -2.118627           -5.884695
 C            2.334980           -2.003126           -5.518843
 C            2.701113           -1.386196           -4.369365
 C            1.702827           -0.826498           -3.468824
 C            2.050011           -0.199602           -2.293527
 C            1.060746            0.353768           -1.416212
 C            3.519800            2.319244           -0.280781
 C            4.866391            2.514074            0.019893
 C            5.578825            1.548982            0.749697
 C            4.910768            0.369684            1.179595
 C            6.983450            1.720927            1.078897
 C            7.661208            0.782597            1.782219
 H            7.588559           -3.331315            3.948637
 H            8.753210           -1.275449            3.204278
 H            5.193837           -3.685804            3.422235
 H            3.081583           -2.898212            2.376515
 H            1.834490           -1.178960            1.086705
 H            1.818016            2.267984            2.137924
 H            1.183968            3.482348            4.196062
 H           -0.603198            4.428801            5.661429
 H           -2.973947            4.244847            5.032055
 H           -3.647368            3.106332            2.913703
 H           -3.001866            1.888863            0.862763
 H           -1.992487           -1.447958            0.153212
 H           -3.444977           -3.356577            0.802782
 H           -5.660257           -4.481687            0.758936
 H           -8.030425           -4.523682            0.039325
 H           -8.968461           -2.679543           -1.322933
 H           -7.230337            1.405923           -3.140631
 H           -8.680108           -0.506561           -2.489951
 H           -5.023055            2.532159           -3.100051
 H           -2.650802            2.583346           -2.388280
 H           -1.721136           -0.508455           -3.269595
 H           -1.086523           -1.686903           -5.347090
 H            0.700111           -2.622816           -6.820151
 H            3.071948           -2.426550           -6.199442
 H            3.747441           -1.287677           -4.081646
 H            3.100272           -0.113257           -2.005501
 H            2.975419            3.074999           -0.849434
 H            5.369410            3.420501           -0.314291
 H            7.470707            2.634327            0.737556
 H            8.714831            0.911725            2.029182

