84

 C            7.467059            1.037473            3.365739
 C            6.075156            1.093843            3.466009
 C            5.271355            0.732608            2.373167
 C            5.887433            0.308196            1.163458
 C            7.305932            0.255015            1.071739
 C            8.082254            0.623154            2.182436
 C            7.909343           -0.181368           -0.176252
 C            7.147865           -0.534884           -1.239106
 C            5.697027           -0.492710           -1.175466
 C            4.897158           -0.858571           -2.269854
 C            3.507576           -0.808055           -2.176796
 C            2.880073           -0.392134           -0.992766
 C            1.396869           -0.361259           -0.947079
 C            0.690841           -1.493383           -0.487490
 C            1.369582           -2.672508           -0.036115
 C            0.679238           -3.776343            0.410330
 C            1.360157           -4.978009            0.872101
 C            0.659352           -6.049629            1.314521
 C           -0.789562           -6.030231            1.333964
 C           -1.473212           -4.939979            0.909993
 C           -0.772937           -3.756841            0.429888
 C           -1.445260           -2.634599            0.001973
 C           -0.747471           -1.473986           -0.468019
 C           -1.434950           -0.323037           -0.908699
 C           -2.919169           -0.313444           -0.912264
 C           -3.591646           -0.732195           -2.070223
 C           -4.984233           -0.746023           -2.122663
 C           -5.742027           -0.339274           -1.012806
 C           -7.194706           -0.343071           -1.033905
 C           -7.915286            0.050710            0.043307
 C           -7.264236            0.493640            1.264867
 C           -7.997658            0.904255            2.389674
 C           -7.337171            1.323710            3.546583
 C           -5.941982            1.342655            3.606291
 C           -5.180462            0.938189            2.498328
 C           -5.842714            0.508900            1.315129
 C           -5.072506            0.088601            0.166489
 C           -3.650395            0.103225            0.219463
 C           -3.006233            0.548890            1.443920
 C           -3.727764            0.943384            2.519891
 C           -0.728815            0.812130           -1.360291
 C           -1.407288            1.993784           -1.805339
 C           -0.716608            3.098453           -2.249701
 C           -1.397206            4.301609           -2.707717
 C           -0.695831            5.378943           -3.135845
 C            0.753121            5.360434           -3.152405
 C            1.436145            4.265116           -2.740908
 C            0.735640            3.079457           -2.267374
 C            1.407684            1.956615           -1.840830
 C            0.709632            0.792804           -1.379282
 C            3.654395           -0.016418            0.124558
 C            5.073454           -0.068929            0.030171
 C            3.058026            0.423929            1.374806
 C            3.820544            0.777835            2.436584
 H            8.079973            1.320432            4.221469
 H            5.610433            1.419217            4.395314
 H            9.168473            0.585361            2.121168
 H            8.997596           -0.213226           -0.224119
 H            7.599607           -0.862143           -2.175516
 H            5.365112           -1.184689           -3.197724
 H            2.895220           -1.095117           -3.033218
 H            2.461928           -2.676046           -0.051856
 H            2.449509           -4.977879            0.847110
 H            1.157153           -6.952371            1.665047
 H           -1.301885           -6.919357            1.697863
 H           -2.562387           -4.910886            0.914073
 H           -2.537300           -2.608750            0.015818
 H           -3.012487           -1.050812           -2.938524
 H           -5.487589           -1.075081           -3.030719
 H           -7.682256           -0.675196           -1.950404
 H           -9.004916            0.047563            0.027310
 H           -9.085816            0.895754            2.360238
 H           -7.917136            1.640186            4.413435
 H           -5.441758            1.672359            4.515442
 H           -1.914090            0.553380            1.462543
 H           -3.239582            1.277131            3.435598
 H           -2.499437            2.000079           -1.782599
 H           -2.486656            4.298330           -2.691842
 H           -1.193576            6.284311           -3.479371
 H            1.265831            6.253148           -3.506998
 H            2.525254            4.233740           -2.750145
 H            2.499884            1.934144           -1.845114
 H            1.967396            0.458324            1.424978
 H            3.368016            1.107721            3.371757

