116

 C           -5.786550            4.535391            6.953093
 C           -4.350681            4.744941            6.921796
 C           -3.580303            4.121014            6.000723
 C           -4.164765            3.220708            5.012819
 C           -3.400191            2.579989            4.071922
 C           -3.989788            1.692797            3.101958
 C           -3.222247            1.038986            2.143482
 C           -3.816161            0.167726            1.195389
 C           -3.043142           -0.502738            0.213807
 C           -3.629259           -1.358591           -0.713629
 C           -5.060054           -1.567865           -0.672617
 C           -5.828961           -0.913818            0.284669
 C           -5.238724           -0.040733            1.231058
 C           -6.013166            0.630581            2.210349
 C           -5.421239            1.483604            3.135312
 C           -6.198650            2.170913            4.134767
 C           -5.609306            3.009764            5.044943
 C           -6.384861            3.711506            6.062072
 C           -5.663382           -2.455925           -1.630243
 C           -4.911929           -3.103748           -2.575441
 C           -5.522047           -4.005750           -3.546247
 C           -4.774757           -4.642052           -4.477371
 C           -3.339521           -4.442032           -4.534090
 C           -2.721278           -3.616482           -3.658093
 C           -3.468500           -2.900350           -2.629400
 C           -2.859225           -2.054077           -1.725787
 C           -1.389713           -1.841855           -1.779536
 C           -0.863797           -0.822548           -2.602089
 C           -1.714236            0.071291           -3.330928
 C           -1.198053            1.048051           -4.152095
 C           -2.053803            1.958256           -4.900107
 C           -1.522774            2.911921           -5.702692
 C           -0.086527            3.052019           -5.836773
 C            0.755174            2.232060           -5.162375
 C            0.241395            1.188854           -4.285989
 C            1.076738            0.345740           -3.588782
 C            0.561705           -0.680238           -2.731169
 C            1.415129           -1.557219           -2.027824
 C            2.884398           -1.468086           -2.229309
 C            3.501399           -2.249616           -3.184441
 C            2.762657           -3.179957           -4.031611
 C            3.388430           -3.936569           -4.962753
 C            4.823783           -3.845766           -5.148541
 C            5.563635           -3.001540           -4.393251
 C            4.944842           -2.160093           -3.374615
 C            5.688573           -1.301296           -2.608045
 C            5.076252           -0.467648           -1.608145
 C            5.835286            0.409368           -0.839394
 C            5.234504            1.238878            0.138764
 C            5.997061            2.141754            0.922163
 C            5.393374            2.956035            1.873800
 C            6.157732            3.879979            2.672821
 C            5.556066            4.683296            3.606535
 C            6.317844            5.624591            4.420490
 C            5.706971            6.411213            5.336338
 C            4.271126            6.340089            5.536160
 C            3.513217            5.485351            4.810956
 C            4.111470            4.611244            3.807799
 C            3.359274            3.739764            3.063096
 C            3.961890            2.883291            2.073528
 C            3.206307            1.998011            1.312170
 C            3.812166            1.164129            0.338074
 C            3.050045            0.262111           -0.446115
 C            3.645791           -0.546829           -1.409099
 C            0.889321           -2.543041           -1.165626
 C            1.739696           -3.420550           -0.416757
 C            1.223423           -4.399392            0.401630
 C            2.079127           -5.300800            1.160492
 C            1.547999           -6.257409            1.959383
 C            0.111639           -6.407871            2.080670
 C           -0.730060           -5.595240            1.397624
 C           -0.216198           -4.549938            0.523611
 C           -1.051516           -3.711307           -0.178760
 C           -0.536306           -2.689750           -1.041811
 H           -6.356630            5.063569            7.715991
 H           -3.923947            5.418508            7.663411
 H           -2.501598            4.268563            5.965679
 H           -2.321159            2.727276            4.035730
 H           -2.143101            1.191270            2.111535
 H           -1.963337           -0.336574            0.194746
 H           -6.906864           -1.070428            0.315006
 H           -7.090353            0.468411            2.230232
 H           -7.275302            2.002442            4.145045
 H           -7.461273            3.544144            6.073114
 H           -6.742517           -2.599161           -1.580943
 H           -6.600856           -4.143787           -3.488699
 H           -5.220049           -5.317208           -5.206337
 H           -2.784160           -4.977397           -5.302429
 H           -1.641436           -3.459913           -3.693638
 H           -2.795546           -0.037949           -3.218067
 H           -3.131308            1.840013           -4.787811
 H           -2.152624            3.598278           -6.266430
 H            0.285998            3.836060           -6.494150
 H            1.837389            2.324142           -5.251768
 H            2.160963            0.448639           -3.677332
 H            1.682593           -3.241766           -3.885016
 H            2.839257           -4.631136           -5.596237
 H            5.275465           -4.477354           -5.911876
 H            6.642377           -2.919932           -4.518999
 H            6.767702           -1.227505           -2.740127
 H            6.913206            0.467562           -0.987708
 H            7.074246            2.191643            0.766613
 H            7.234563            3.921099            2.510342
 H            7.394424            5.666731            4.259335
 H            6.266569            7.117249            5.948245
 H            3.834044            6.997034            6.286574
 H            2.434724            5.421233            4.949945
 H            2.280482            3.674631            3.201951
 H            2.127312            1.936796            1.456417
 H            1.970566            0.211190           -0.284417
 H            2.821069           -3.293623           -0.508535
 H            3.156680           -5.174333            1.058086
 H            2.177636           -6.936932            2.531640
 H           -0.260914           -7.192420            2.737415
 H           -1.812307           -5.695206            1.477401
 H           -2.135749           -3.810757           -0.086751

