92

 C          -12.155733            2.146752           -0.081342
 C          -11.458087            0.997256            0.105240
 C          -10.005923            0.992234            0.074411
 C           -9.273379           -0.169986            0.262592
 C           -7.852944           -0.154954            0.229225
 C           -7.089540           -1.338749            0.420100
 C           -5.704124           -1.309982            0.384691
 C           -4.905277           -2.508301            0.576434
 C           -3.550254           -2.462632            0.535666
 C           -2.863812           -1.207015            0.297818
 C           -1.380968           -1.212484            0.255230
 C           -0.723070           -1.413616           -0.976612
 C           -1.449407           -1.639060           -2.191538
 C           -0.804988           -1.818764           -3.394459
 C           -1.534499           -2.039189           -4.635318
 C           -0.879028           -2.212371           -5.808433
 C            0.568994           -2.183173           -5.858346
 C            1.296489           -1.981763           -4.733146
 C            0.646095           -1.788930           -3.444503
 C            1.363973           -1.580626           -2.288597
 C            0.714207           -1.383480           -1.026204
 C            1.446042           -1.152946            0.157841
 C            2.926819           -1.084524            0.100680
 C            3.680177           -2.309038            0.293786
 C            5.035892           -2.295843            0.251484
 C            5.768902           -1.064238            0.013183
 C            7.153935           -1.032053           -0.032293
 C            7.852246            0.183721           -0.266807
 C            9.271481            0.231589           -0.315302
 C            9.939918            1.424665           -0.544920
 C           11.389754            1.494211           -0.597606
 C           12.023873            2.673031           -0.824022
 C           11.269487            3.890302           -1.018717
 C            9.912807            3.876831           -0.978317
 C            9.185966            2.642395           -0.739202
 C            7.800917            2.608154           -0.693899
 C            7.105498            1.391896           -0.459056
 C            5.686396            1.346639           -0.410236
 C            5.016880            0.154835           -0.180163
 C            3.569084            0.094136           -0.126592
 C            0.788691           -0.969983            1.392436
 C            1.514982           -0.743374            2.607565
 C            0.869889           -0.549119            3.807713
 C            1.598526           -0.310003            5.045901
 C            0.942091           -0.119774            6.215739
 C           -0.505965           -0.149611            6.265477
 C           -1.232541           -0.368426            5.143036
 C           -0.581359           -0.579208            3.857575
 C           -1.298621           -0.801987            2.704292
 C           -0.648747           -1.000101            1.441949
 C           -3.569304           -0.057047            0.115138
 C           -5.018908           -0.059152            0.150173
 C           -5.752467            1.102126           -0.037108
 C           -7.172594            1.085001           -0.003167
 C           -7.933560            2.269205           -0.194964
 C           -9.319063            2.242174           -0.160273
 C          -10.112565            3.443033           -0.354334
 C          -11.468577            3.396330           -0.316272
 H          -13.244265            2.161740           -0.059939
 H          -11.962737            0.048525            0.282871
 H           -9.783072           -1.116584            0.439734
 H           -7.614681           -2.277288            0.595781
 H           -5.434225           -3.444617            0.753598
 H           -2.940449           -3.354837            0.677574
 H           -2.540295           -1.664427           -2.143564
 H           -2.622485           -2.056868           -4.580807
 H           -1.414043           -2.376874           -6.742430
 H            1.044391           -2.327598           -6.827320
 H            2.385448           -1.955570           -4.753970
 H            2.455648           -1.560732           -2.315703
 H            3.119306           -3.226499            0.471568
 H            5.614668           -3.208182            0.394822
 H            7.729080           -1.946290            0.112422
 H            9.831871           -0.691228           -0.168115
 H           11.945401            0.569196           -0.449315
 H           13.110070            2.736302           -0.865397
 H           11.824452            4.809979           -1.197390
 H            9.329990            4.785559           -1.123158
 H            7.223952            3.521128           -0.839028
 H            5.126886            2.270328           -0.557460
 H            3.013858            1.020869           -0.273557
 H            2.606055           -0.726423            2.560872
 H            2.686429           -0.288998            4.991219
 H            1.476395            0.060569            7.147331
 H           -0.982188            0.010010            7.231637
 H           -2.321569           -0.392257            5.163041
 H           -2.390083           -0.830483            2.732503
 H           -3.064802            0.892903           -0.063256
 H           -5.243590            2.049531           -0.214500
 H           -7.406881            3.206784           -0.371335
 H           -9.580006            4.376761           -0.530494
 H          -12.073237            4.290358           -0.460261

