104

 C            3.824445            6.589830            3.452532
 C            2.474423            6.558893            2.927193
 C            1.964429            5.420577            2.398185
 C            2.754497            4.198540            2.341431
 C            2.253912            3.032136            1.807404
 C            3.044022            1.838154            1.758771
 C            2.541633            0.645065            1.215739
 C            3.318905           -0.522956            1.169810
 C            4.659018           -0.489829            1.693382
 C            5.163400            0.702564            2.236362
 C            4.384208            1.868727            2.280531
 C            4.885766            3.092487            2.831711
 C            4.109369            4.229271            2.868724
 C            4.603189            5.481503            3.425433
 C            5.454557           -1.679387            1.648952
 C            4.961004           -2.848582            1.117077
 C            5.767186           -4.061031            1.068783
 C            5.274949           -5.207743            0.542007
 C            3.927783           -5.256134            0.012604
 C            3.136031           -4.157142            0.033293
 C            3.609238           -2.894746            0.585068
 C            2.820388           -1.757634            0.614106
 C            1.438996           -1.775387            0.067381
 C            1.224484           -1.442736           -1.287547
 C            2.311944           -1.140577           -2.170721
 C            2.099763           -0.809570           -3.489823
 C            3.198059           -0.496832           -4.393464
 C            2.964386           -0.164549           -5.685955
 C            1.612306           -0.116410           -6.204930
 C            0.554441           -0.404228           -5.408869
 C            0.744820           -0.763666           -4.010551
 C           -0.314409           -1.054085           -3.180801
 C           -0.117340           -1.399687           -1.803947
 C           -1.201826           -1.692511           -0.949367
 C           -2.591038           -1.592406           -1.466668
 C           -3.221548           -2.693515           -2.019714
 C           -2.568805           -3.991161           -2.129556
 C           -3.205683           -5.054723           -2.675514
 C           -4.562233           -4.931893           -3.167707
 C           -5.218837           -3.749643           -3.090521
 C           -4.582923           -2.572264           -2.514313
 C           -5.242693           -1.367427           -2.433620
 C           -4.612302           -0.211926           -1.869771
 C           -5.284178            1.018143           -1.792190
 C           -4.665399            2.152179           -1.243667
 C           -5.337639            3.414596           -1.160809
 C           -4.716124            4.520084           -0.623548
 C           -5.383831            5.811455           -0.533128
 C           -4.754654            6.888167           -0.003336
 C           -3.396196            6.783422            0.489680
 C           -2.728737            5.605758            0.431418
 C           -3.353419            4.414890           -0.127217
 C           -2.691007            3.209368           -0.195382
 C           -3.317943            2.047667           -0.751224
 C           -2.648628            0.815733           -0.827177
 C           -3.264426           -0.319409           -1.376770
 C           -0.984330           -2.065871            0.394279
 C           -2.069007           -2.404462            1.267722
 C           -1.854419           -2.764531            2.578803
 C           -2.950368           -3.107745            3.474234
 C           -2.715529           -3.453112            4.763105
 C           -1.363946           -3.493778            5.284229
 C           -0.307602           -3.187937            4.492872
 C           -0.499673           -2.806198            3.100723
 C            0.557134           -2.486028            2.278938
 C            0.357623           -2.107811            0.911020
 H            4.184383            7.530721            3.866476
 H            1.892264            7.477739            2.974616
 H            0.951390            5.382084            2.000293
 H            1.240345            2.994147            1.409073
 H            1.523030            0.627365            0.821023
 H            6.178647            0.723273            2.631016
 H            5.902407            3.101430            3.223178
 H            5.619561            5.490276            3.817275
 H            6.467453           -1.636437            2.048838
 H            6.777531           -4.006226            1.471950
 H            5.869663           -6.119171            0.500561
 H            3.578470           -6.201609           -0.398881
 H            2.118615           -4.182984           -0.362517
 H            3.328104           -1.181019           -1.771547
 H            4.208759           -0.538995           -3.988572
 H            3.777204            0.075080           -6.369791
 H            1.481780            0.158033           -7.250595
 H           -0.467742           -0.374164           -5.784832
 H           -1.336598           -1.027308           -3.565274
 H           -1.546222           -4.072963           -1.755043
 H           -2.721587           -6.026224           -2.760173
 H           -5.028337           -5.817440           -3.597329
 H           -6.239184           -3.639071           -3.455051
 H           -6.264094           -1.269007           -2.800550
 H           -6.304742            1.094869           -2.165557
 H           -6.358374            3.479239           -1.535952
 H           -6.404801            5.875981           -0.907263
 H           -5.245105            7.857920            0.068453
 H           -2.938278            7.679970            0.904460
 H           -1.707483            5.511755            0.797961
 H           -1.669981            3.115490            0.173673
 H           -1.625547            0.741878           -0.450908
 H           -3.084487           -2.373733            0.866074
 H           -3.960569           -3.073658            3.067446
 H           -3.527306           -3.708408            5.442486
 H           -1.232678           -3.777019            6.327426
 H            0.714426           -3.215122            4.869633
 H            1.579870           -2.518542            2.661631

