104

 C           -4.305920           -5.966465           -2.127847
 C           -2.867075           -5.798658           -2.097047
 C           -2.316551           -4.636334           -1.670711
 C           -3.151796           -3.526518           -1.234260
 C           -2.609687           -2.337825           -0.799124
 C           -3.436586           -1.249291           -0.370798
 C           -4.864551           -1.418090           -0.402481
 C           -5.409750           -2.662093           -0.858130
 C           -4.594432           -3.694512           -1.265024
 C           -5.129487           -4.965934           -1.731672
 C           -5.695908           -0.366143            0.011344
 C           -5.159550            0.850346            0.456848
 C           -6.008843            1.925264            0.877845
 C           -5.485490            3.120620            1.315230
 C           -6.334283            4.223284            1.745204
 C           -5.797120            5.391260            2.173069
 C           -4.360137            5.574598            2.214254
 C           -3.525004            4.581501            1.824898
 C           -4.044110            3.304585            1.355353
 C           -3.211591            2.283874            0.954830
 C           -3.731961            1.030756            0.494081
 C           -2.892771           -0.024010            0.078115
 C           -1.415723            0.134452            0.102384
 C           -0.688706           -0.291181            1.234966
 C           -1.345160           -0.770643            2.414907
 C           -0.633086           -1.200171            3.511980
 C           -1.290808           -1.685590            4.717051
 C           -0.569000           -2.107548            5.783310
 C            0.879642           -2.084652            5.752596
 C            1.541838           -1.640051            4.657256
 C            0.818733           -1.175708            3.481735
 C            1.469754           -0.720923            2.357236
 C            0.749238           -0.263464            1.206357
 C            1.413081            0.193998            0.047847
 C            2.892724            0.091849           -0.039110
 C            3.458409           -1.082499           -0.586773
 C            2.651165           -2.167941           -1.057765
 C            3.213897           -3.305181           -1.592692
 C            2.398382           -4.410384           -2.075298
 C            2.968802           -5.522067           -2.599263
 C            4.410031           -5.638058           -2.692687
 C            5.215864           -4.638797           -2.258418
 C            4.658856           -3.421119           -1.686068
 C            5.455861           -2.391234           -1.237999
 C            4.888752           -1.199890           -0.679946
 C            5.700887           -0.149138           -0.226174
 C            5.142849            1.017240            0.315747
 C            5.972516            2.091748            0.775678
 C            5.427857            3.239441            1.304698
 C            6.256542            4.341384            1.774270
 C            5.698617            5.462977            2.290333
 C            4.258875            5.595810            2.389570
 C            3.441914            4.600778            1.968340
 C            3.983651            3.372300            1.404313
 C            3.169788            2.350600            0.969762
 C            3.712496            1.146416            0.413761
 C            0.685155            0.695451           -1.052431
 C            1.341101            1.226217           -2.210642
 C            0.628685            1.699161           -3.289259
 C            1.285750            2.246381           -4.468002
 C            0.563741            2.700218           -5.520824
 C           -0.884552            2.653962           -5.500331
 C           -1.546384            2.158497           -4.426891
 C           -0.822930            1.657133           -3.266748
 C           -1.473475            1.150490           -2.164522
 C           -0.752730            0.661043           -1.026773
 H           -4.695192           -6.921109           -2.478770
 H           -2.252847           -6.635056           -2.426002
 H           -1.237103           -4.493212           -1.639149
 H           -1.525829           -2.205265           -0.772903
 H           -6.493414           -2.772255           -0.875124
 H           -6.212514           -5.078418           -1.749010
 H           -6.777138           -0.497233           -0.014297
 H           -7.086740            1.771315            0.842522
 H           -7.411940            4.070559            1.708520
 H           -6.422176            6.222342            2.496753
 H           -3.982651            6.532863            2.567145
 H           -2.442371            4.703115            1.849297
 H           -2.127135            2.412435            0.980893
 H           -2.437561           -0.785954            2.427625
 H           -2.380394           -1.695664            4.724177
 H           -1.049812           -2.474165            6.688927
 H            1.409709           -2.436143            6.636482
 H            2.630513           -1.615552            4.618172
 H            2.561613           -0.697987            2.325180
 H            1.565309           -2.074739           -0.984749
 H            1.316797           -4.305245           -1.998653
 H            2.369186           -6.354424           -2.963395
 H            4.815770           -6.552731           -3.122551
 H            6.300440           -4.712412           -2.322878
 H            6.541048           -2.462998           -1.300463
 H            6.784059           -0.241626           -0.297461
 H            7.052766            1.976381            0.694590
 H            7.336497            4.226591            1.693306
 H            6.308333            6.293253            2.644079
 H            3.864362            6.518288            2.812326
 H            2.357543            4.684537            2.036287
 H            2.083475            2.440221            1.041104
 H            2.433376            1.251465           -2.218919
 H            2.375050            2.274378           -4.467100
 H            1.043885            3.110206           -6.408043
 H           -1.414647            3.029338           -6.374303
 H           -2.634791            2.117453           -4.395153
 H           -2.565171            1.116129           -2.137723

