104

 C            3.718754           -0.738874            5.166217
 C            2.310046           -0.723592            4.830711
 C            1.909264           -0.587399            3.542979
 C            2.860505           -0.432697            2.452889
 C            4.256339           -0.226762            2.831752
 C            4.646757           -0.496424            4.211400
 C            5.177596            0.177768            1.900447
 C            4.727304            0.652047            0.618874
 C            5.563696            1.395335           -0.207134
 C            5.057659            2.065450           -1.347443
 C            5.894510            2.830251           -2.206563
 C            5.367864            3.520065           -3.285740
 C            6.204545            4.316769           -4.167388
 C            5.671231            4.978398           -5.225281
 C            4.254764            4.902016           -5.504962
 C            3.430405            4.177476           -4.706693
 C            3.947423            3.459721           -3.554042
 C            3.121334            2.724684           -2.719818
 C            3.650203            2.009510           -1.610047
 C            2.817987            1.226221           -0.769085
 C            3.337493            0.456513            0.264351
 C            2.514224           -0.427776            1.096787
 C            1.396544           -1.200084            0.550990
 C            0.975060           -1.136968           -0.820118
 C            1.882745           -1.017735           -1.910017
 C            1.444467           -0.854264           -3.212793
 C            2.370225           -0.709873           -4.323167
 C            1.915720           -0.504417           -5.585043
 C            0.496636           -0.433352           -5.856560
 C           -0.408102           -0.583094           -4.856668
 C            0.025636           -0.818724           -3.489805
 C           -0.868566           -1.051352           -2.462097
 C           -0.420376           -1.299510           -1.131379
 C           -1.304671           -1.763839           -0.125401
 C           -2.769522           -1.764684           -0.355952
 C           -3.529806           -0.613734            0.062956
 C           -2.930167            0.499058            0.674986
 C           -3.688983            1.607878            1.080397
 C           -3.082734            2.745039            1.707387
 C           -3.836064            3.826686            2.104986
 C           -3.235490            4.989398            2.744425
 C           -3.993699            6.043373            3.131322
 C           -5.427074            6.041950            2.917718
 C           -6.037743            4.987389            2.326042
 C           -5.274516            3.826128            1.889113
 C           -5.876725            2.744931            1.286333
 C           -5.111707            1.608791            0.865280
 C           -5.712846            0.500160            0.251594
 C           -4.952602           -0.609025           -0.152934
 C           -5.568243           -1.740381           -0.776888
 C           -4.825826           -2.830633           -1.170292
 C           -5.447775           -3.985124           -1.804386
 C           -4.710469           -5.055534           -2.186070
 C           -3.278487           -5.076997           -1.971344
 C           -2.650778           -4.028360           -1.386921
 C           -3.389164           -2.848979           -0.955611
 C           -0.764740           -2.297439            1.058780
 C           -1.562745           -3.064283            1.969717
 C           -0.993891           -3.758221            3.012739
 C           -1.782893           -4.574050            3.924457
 C           -1.185675           -5.313543            4.890245
 C            0.255417           -5.307649            5.041921
 C            1.034252           -4.548398            4.233544
 C            0.445984           -3.717154            3.193865
 C            1.212444           -2.905138            2.385997
 C            0.635426           -2.104316            1.350384
 H            3.994409           -0.929158            6.202082
 H            1.591579           -0.809241            5.644337
 H            0.846529           -0.531756            3.292701
 H            5.710937           -0.468403            4.441827
 H            6.240757            0.214444            2.127087
 H            6.617513            1.507511            0.044127
 H            6.962835            2.866806           -1.998182
 H            7.269658            4.363422           -3.944808
 H            6.288141            5.581703           -5.889605
 H            3.878715            5.442039           -6.372224
 H            2.361212            4.108946           -4.905274
 H            2.049021            2.672306           -2.913362
 H            1.739603            1.252013           -0.949023
 H            2.954619           -1.095086           -1.707868
 H            3.436393           -0.759076           -4.101435
 H            2.599739           -0.385487           -6.424072
 H            0.185520           -0.258363           -6.885289
 H           -1.480052           -0.535640           -5.044631
 H           -1.941459           -1.085185           -2.664285
 H           -1.850282            0.503465            0.841015
 H           -2.003628            2.732453            1.863265
 H           -2.156733            4.975951            2.897717
 H           -3.554921            6.917245            3.610460
 H           -5.988223            6.914603            3.248952
 H           -7.113984            4.971835            2.158324
 H           -6.952938            2.731506            1.117494
 H           -6.789793            0.499055            0.086530
 H           -6.646503           -1.718710           -0.933678
 H           -6.525642           -3.951567           -1.957454
 H           -5.165039           -5.923827           -2.660937
 H           -2.730131           -5.960690           -2.294599
 H           -1.571150           -4.035345           -1.220655
 H           -2.639274           -3.115793            1.791689
 H           -2.864718           -4.568390            3.795089
 H           -1.763748           -5.931061            5.575785
 H            0.683341           -5.931896            5.824774
 H            2.118775           -4.529781            4.337199
 H            2.300139           -2.893775            2.500384

