
     RDKit          3D

 98111  0  0  0  0  0  0  0  0999 V2000
    6.6905    0.5133    4.7661 C   0  0  0  0  0  0  0  0  0  0  0  0
    7.5531    0.3224    3.6918 C   0  0  0  0  0  0  0  0  0  0  0  0
    7.0419   -0.0432    2.4455 C   0  0  0  0  0  0  0  0  0  0  0  0
    5.6603   -0.2239    2.2575 C   0  0  0  0  0  0  0  0  0  0  0  0
    5.1236   -0.5912    1.0081 C   0  0  0  0  0  0  0  0  0  0  0  0
    3.7333   -0.7830    0.7830 C   0  0  0  0  0  0  0  0  0  0  0  0
    2.8896   -0.5859    1.8973 C   0  0  0  0  0  0  0  0  0  0  0  0
    3.4164   -0.2150    3.1478 C   0  0  0  0  0  0  0  0  0  0  0  0
    4.7910   -0.0319    3.3438 C   0  0  0  0  0  0  0  0  0  0  0  0
    5.3170    0.3379    4.5939 C   0  0  0  0  0  0  0  0  0  0  0  0
    1.5114   -0.7532    1.7621 C   0  0  0  0  0  0  0  0  0  0  0  0
    0.9193   -1.0979    0.5382 C   0  0  0  0  0  0  0  0  0  0  0  0
   -0.5579   -1.2055    0.4916 C   0  0  0  0  0  0  0  0  0  0  0  0
   -1.1487   -2.4835    0.5420 C   0  0  0  0  0  0  0  0  0  0  0  0
   -2.5401   -2.6579    0.4788 C   0  0  0  0  0  0  0  0  0  0  0  0
   -3.1204   -3.9366    0.5132 C   0  0  0  0  0  0  0  0  0  0  0  0
   -4.5125   -4.1114    0.4409 C   0  0  0  0  0  0  0  0  0  0  0  0
   -5.0932   -5.3906    0.4711 C   0  0  0  0  0  0  0  0  0  0  0  0
   -6.4847   -5.5648    0.3932 C   0  0  0  0  0  0  0  0  0  0  0  0
   -7.0661   -6.8431    0.4199 C   0  0  0  0  0  0  0  0  0  0  0  0
   -8.4507   -6.9991    0.3402 C   0  0  0  0  0  0  0  0  0  0  0  0
   -9.2710   -5.8804    0.2330 C   0  0  0  0  0  0  0  0  0  0  0  0
   -8.7083   -4.6037    0.2054 C   0  0  0  0  0  0  0  0  0  0  0  0
   -7.3169   -4.4304    0.2845 C   0  0  0  0  0  0  0  0  0  0  0  0
   -6.7357   -3.1522    0.2568 C   0  0  0  0  0  0  0  0  0  0  0  0
   -5.3437   -2.9792    0.3335 C   0  0  0  0  0  0  0  0  0  0  0  0
   -4.7628   -1.7005    0.3034 C   0  0  0  0  0  0  0  0  0  0  0  0
   -3.3711   -1.5269    0.3738 C   0  0  0  0  0  0  0  0  0  0  0  0
   -2.7910   -0.2492    0.3401 C   0  0  0  0  0  0  0  0  0  0  0  0
   -1.3957   -0.0673    0.3961 C   0  0  0  0  0  0  0  0  0  0  0  0
   -0.8568    1.3115    0.3669 C   0  0  0  0  0  0  0  0  0  0  0  0
   -0.6983    1.9700    1.5957 C   0  0  0  0  0  0  0  0  0  0  0  0
   -0.1545    3.2514    1.6837 C   0  0  0  0  0  0  0  0  0  0  0  0
   -0.0019    3.8467    2.9490 C   0  0  0  0  0  0  0  0  0  0  0  0
    0.5456    5.1268    3.1001 C   0  0  0  0  0  0  0  0  0  0  0  0
    0.6990    5.7206    4.3649 C   0  0  0  0  0  0  0  0  0  0  0  0
    1.2489    6.9966    4.4916 C   0  0  0  0  0  0  0  0  0  0  0  0
    1.6509    7.6931    3.3567 C   0  0  0  0  0  0  0  0  0  0  0  0
    1.5028    7.1137    2.0955 C   0  0  0  0  0  0  0  0  0  0  0  0
    0.9506    5.8287    1.9529 C   0  0  0  0  0  0  0  0  0  0  0  0
    0.7931    5.2254    0.6898 C   0  0  0  0  0  0  0  0  0  0  0  0
    0.2407    3.9283    0.5095 C   0  0  0  0  0  0  0  0  0  0  0  0
    0.0649    3.2826   -0.7690 C   0  0  0  0  0  0  0  0  0  0  0  0
    0.4273    3.8924   -1.9999 C   0  0  0  0  0  0  0  0  0  0  0  0
    0.2590    3.2732   -3.2512 C   0  0  0  0  0  0  0  0  0  0  0  0
    0.6332    3.9055   -4.4505 C   0  0  0  0  0  0  0  0  0  0  0  0
    0.4633    3.2664   -5.6797 C   0  0  0  0  0  0  0  0  0  0  0  0
   -0.0833    1.9883   -5.7252 C   0  0  0  0  0  0  0  0  0  0  0  0
   -0.4639    1.3537   -4.5427 C   0  0  0  0  0  0  0  0  0  0  0  0
   -0.2970    1.9884   -3.3002 C   0  0  0  0  0  0  0  0  0  0  0  0
   -0.6690    1.3686   -2.0996 C   0  0  0  0  0  0  0  0  0  0  0  0
   -0.4927    1.9760   -0.8319 C   0  0  0  0  0  0  0  0  0  0  0  0
    1.7439   -1.3192   -0.5966 C   0  0  0  0  0  0  0  0  0  0  0  0
    1.1996   -1.6941   -1.8515 C   0  0  0  0  0  0  0  0  0  0  0  0
    1.9839   -1.8981   -2.9948 C   0  0  0  0  0  0  0  0  0  0  0  0
    1.4145   -2.2584   -4.2287 C   0  0  0  0  0  0  0  0  0  0  0  0
    2.2150   -2.4458   -5.3558 C   0  0  0  0  0  0  0  0  0  0  0  0
    3.5925   -2.2787   -5.2609 C   0  0  0  0  0  0  0  0  0  0  0  0
    4.1678   -1.9272   -4.0387 C   0  0  0  0  0  0  0  0  0  0  0  0
    3.3711   -1.7322   -2.8967 C   0  0  0  0  0  0  0  0  0  0  0  0
    3.9260   -1.3717   -1.6557 C   0  0  0  0  0  0  0  0  0  0  0  0
    3.1520   -1.1568   -0.4837 C   0  0  0  0  0  0  0  0  0  0  0  0
    7.0849    0.7987    5.7378 H   0  0  0  0  0  0  0  0  0  0  0  0
    8.6235    0.4583    3.8210 H   0  0  0  0  0  0  0  0  0  0  0  0
    7.7324   -0.1865    1.6174 H   0  0  0  0  0  0  0  0  0  0  0  0
    5.8274   -0.7268    0.1920 H   0  0  0  0  0  0  0  0  0  0  0  0
    2.7409   -0.0604    3.9878 H   0  0  0  0  0  0  0  0  0  0  0  0
    4.6561    0.4930    5.4437 H   0  0  0  0  0  0  0  0  0  0  0  0
    0.8666   -0.5977    2.6263 H   0  0  0  0  0  0  0  0  0  0  0  0
   -0.5009   -3.3564    0.6206 H   0  0  0  0  0  0  0  0  0  0  0  0
   -2.4773   -4.8114    0.5943 H   0  0  0  0  0  0  0  0  0  0  0  0
   -4.4519   -6.2663    0.5547 H   0  0  0  0  0  0  0  0  0  0  0  0
   -6.4425   -7.7305    0.5031 H   0  0  0  0  0  0  0  0  0  0  0  0
   -8.8872   -7.9943    0.3619 H   0  0  0  0  0  0  0  0  0  0  0  0
  -10.3495   -6.0001    0.1708 H   0  0  0  0  0  0  0  0  0  0  0  0
   -9.3664   -3.7417    0.1212 H   0  0  0  0  0  0  0  0  0  0  0  0
   -7.3781   -2.2775    0.1719 H   0  0  0  0  0  0  0  0  0  0  0  0
   -5.4055   -0.8255    0.2208 H   0  0  0  0  0  0  0  0  0  0  0  0
   -3.4310    0.6296    0.2632 H   0  0  0  0  0  0  0  0  0  0  0  0
   -0.9947    1.4490    2.5057 H   0  0  0  0  0  0  0  0  0  0  0  0
   -0.3128    3.2999    3.8377 H   0  0  0  0  0  0  0  0  0  0  0  0
    0.3898    5.1903    5.2627 H   0  0  0  0  0  0  0  0  0  0  0  0
    1.3622    7.4452    5.4751 H   0  0  0  0  0  0  0  0  0  0  0  0
    2.0795    8.6875    3.4505 H   0  0  0  0  0  0  0  0  0  0  0  0
    1.8233    7.6748    1.2205 H   0  0  0  0  0  0  0  0  0  0  0  0
    1.1197    5.7989   -0.1731 H   0  0  0  0  0  0  0  0  0  0  0  0
    0.8640    4.8869   -2.0028 H   0  0  0  0  0  0  0  0  0  0  0  0
    1.0670    4.9027   -4.4333 H   0  0  0  0  0  0  0  0  0  0  0  0
    0.7637    3.7640   -6.5977 H   0  0  0  0  0  0  0  0  0  0  0  0
   -0.2104    1.4813   -6.6775 H   0  0  0  0  0  0  0  0  0  0  0  0
   -0.8864    0.3532   -4.5950 H   0  0  0  0  0  0  0  0  0  0  0  0
   -1.1083    0.3749   -2.1609 H   0  0  0  0  0  0  0  0  0  0  0  0
    0.1240   -1.8264   -1.9512 H   0  0  0  0  0  0  0  0  0  0  0  0
    0.3390   -2.3920   -4.3186 H   0  0  0  0  0  0  0  0  0  0  0  0
    1.7628   -2.7199   -6.3050 H   0  0  0  0  0  0  0  0  0  0  0  0
    4.2204   -2.4174   -6.1365 H   0  0  0  0  0  0  0  0  0  0  0  0
    5.2464   -1.7988   -3.9839 H   0  0  0  0  0  0  0  0  0  0  0  0
    5.0048   -1.2500   -1.6211 H   0  0  0  0  0  0  0  0  0  0  0  0
  1  2  4  0
  2  3  4  0
  3  4  4  0
  4  5  4  0
  5  6  4  0
  6  7  4  0
  7  8  4  0
  8  9  4  0
  9 10  4  0
  7 11  4  0
 11 12  4  0
 12 13  1  0
 13 14  4  0
 14 15  4  0
 15 16  4  0
 16 17  4  0
 17 18  4  0
 18 19  4  0
 19 20  4  0
 20 21  4  0
 21 22  4  0
 22 23  4  0
 23 24  4  0
 24 25  4  0
 25 26  4  0
 26 27  4  0
 27 28  4  0
 28 29  4  0
 29 30  4  0
 30 31  1  0
 31 32  4  0
 32 33  4  0
 33 34  4  0
 34 35  4  0
 35 36  4  0
 36 37  4  0
 37 38  4  0
 38 39  4  0
 39 40  4  0
 40 41  4  0
 41 42  4  0
 42 43  4  0
 43 44  4  0
 44 45  4  0
 45 46  4  0
 46 47  4  0
 47 48  4  0
 48 49  4  0
 49 50  4  0
 50 51  4  0
 51 52  4  0
 12 53  4  0
 53 54  4  0
 54 55  4  0
 55 56  4  0
 56 57  4  0
 57 58  4  0
 58 59  4  0
 59 60  4  0
 60 61  4  0
 61 62  4  0
 10  1  4  0
 30 13  4  0
 52 31  4  0
 62 53  4  0
  9  4  4  0
 28 15  4  0
 42 33  4  0
 52 43  4  0
 60 55  4  0
 62  6  4  0
 26 17  4  0
 40 35  4  0
 50 45  4  0
 24 19  4  0
  1 63  1  0
  2 64  1  0
  3 65  1  0
  5 66  1  0
  8 67  1  0
 10 68  1  0
 11 69  1  0
 14 70  1  0
 16 71  1  0
 18 72  1  0
 20 73  1  0
 21 74  1  0
 22 75  1  0
 23 76  1  0
 25 77  1  0
 27 78  1  0
 29 79  1  0
 32 80  1  0
 34 81  1  0
 36 82  1  0
 37 83  1  0
 38 84  1  0
 39 85  1  0
 41 86  1  0
 44 87  1  0
 46 88  1  0
 47 89  1  0
 48 90  1  0
 49 91  1  0
 51 92  1  0
 54 93  1  0
 56 94  1  0
 57 95  1  0
 58 96  1  0
 59 97  1  0
 61 98  1  0
M  END
