
     RDKit          3D

 98111  0  0  0  0  0  0  0  0999 V2000
    8.3319   -3.8279    3.2886 C   0  0  0  0  0  0  0  0  0  0  0  0
    8.0314   -4.7201    2.2648 C   0  0  0  0  0  0  0  0  0  0  0  0
    6.9661   -4.4562    1.4025 C   0  0  0  0  0  0  0  0  0  0  0  0
    6.1868   -3.2957    1.5531 C   0  0  0  0  0  0  0  0  0  0  0  0
    5.1078   -3.0103    0.6933 C   0  0  0  0  0  0  0  0  0  0  0  0
    4.2984   -1.8475    0.8145 C   0  0  0  0  0  0  0  0  0  0  0  0
    4.6333   -0.9681    1.8688 C   0  0  0  0  0  0  0  0  0  0  0  0
    5.7102   -1.2432    2.7314 C   0  0  0  0  0  0  0  0  0  0  0  0
    6.4919   -2.3961    2.5880 C   0  0  0  0  0  0  0  0  0  0  0  0
    7.5669   -2.6722    3.4502 C   0  0  0  0  0  0  0  0  0  0  0  0
    3.8922    0.1940    2.0558 C   0  0  0  0  0  0  0  0  0  0  0  0
    2.8200    0.4961    1.2200 C   0  0  0  0  0  0  0  0  0  0  0  0
    2.4259   -0.3425    0.1581 C   0  0  0  0  0  0  0  0  0  0  0  0
    1.3113   -0.0256   -0.6939 C   0  0  0  0  0  0  0  0  0  0  0  0
    0.4457    1.1522   -0.3929 C   0  0  0  0  0  0  0  0  0  0  0  0
    0.8347    2.4116   -0.8948 C   0  0  0  0  0  0  0  0  0  0  0  0
    0.0849    3.5721   -0.6491 C   0  0  0  0  0  0  0  0  0  0  0  0
    0.4812    4.8205   -1.1562 C   0  0  0  0  0  0  0  0  0  0  0  0
   -0.2709    5.9819   -0.9130 C   0  0  0  0  0  0  0  0  0  0  0  0
    0.1235    7.2303   -1.4231 C   0  0  0  0  0  0  0  0  0  0  0  0
   -0.6294    8.3910   -1.1812 C   0  0  0  0  0  0  0  0  0  0  0  0
   -0.2360    9.6395   -1.6909 C   0  0  0  0  0  0  0  0  0  0  0  0
   -0.9958   10.7835   -1.4423 C   0  0  0  0  0  0  0  0  0  0  0  0
   -2.1575   10.6943   -0.6818 C   0  0  0  0  0  0  0  0  0  0  0  0
   -2.5613    9.4610   -0.1683 C   0  0  0  0  0  0  0  0  0  0  0  0
   -1.8073    8.3007   -0.4095 C   0  0  0  0  0  0  0  0  0  0  0  0
   -2.2005    7.0522    0.1003 C   0  0  0  0  0  0  0  0  0  0  0  0
   -1.4465    5.8918   -0.1421 C   0  0  0  0  0  0  0  0  0  0  0  0
   -1.8405    4.6429    0.3666 C   0  0  0  0  0  0  0  0  0  0  0  0
   -1.0888    3.4825    0.1214 C   0  0  0  0  0  0  0  0  0  0  0  0
   -1.4868    2.2341    0.6241 C   0  0  0  0  0  0  0  0  0  0  0  0
   -0.7469    1.0595    0.3748 C   0  0  0  0  0  0  0  0  0  0  0  0
   -1.2644   -0.2297    0.9206 C   0  0  0  0  0  0  0  0  0  0  0  0
   -2.2212   -0.9997    0.1711 C   0  0  0  0  0  0  0  0  0  0  0  0
   -2.7951   -0.5230   -1.0246 C   0  0  0  0  0  0  0  0  0  0  0  0
   -3.7076   -1.2671   -1.7678 C   0  0  0  0  0  0  0  0  0  0  0  0
   -4.1014   -2.5325   -1.3467 C   0  0  0  0  0  0  0  0  0  0  0  0
   -5.0220   -3.2586   -2.1238 C   0  0  0  0  0  0  0  0  0  0  0  0
   -5.4626   -4.5324   -1.7439 C   0  0  0  0  0  0  0  0  0  0  0  0
   -6.3858   -5.2568   -2.5180 C   0  0  0  0  0  0  0  0  0  0  0  0
   -6.8128   -6.5239   -2.1188 C   0  0  0  0  0  0  0  0  0  0  0  0
   -6.3216   -7.0814   -0.9429 C   0  0  0  0  0  0  0  0  0  0  0  0
   -5.4035   -6.3713   -0.1669 C   0  0  0  0  0  0  0  0  0  0  0  0
   -4.9653   -5.0932   -0.5560 C   0  0  0  0  0  0  0  0  0  0  0  0
   -4.0415   -4.3589    0.2143 C   0  0  0  0  0  0  0  0  0  0  0  0
   -3.5795   -3.0630   -0.1456 C   0  0  0  0  0  0  0  0  0  0  0  0
   -2.6389   -2.2773    0.6272 C   0  0  0  0  0  0  0  0  0  0  0  0
   -2.1037   -2.7204    1.8571 C   0  0  0  0  0  0  0  0  0  0  0  0
   -1.2351   -1.9538    2.6469 C   0  0  0  0  0  0  0  0  0  0  0  0
   -0.7929   -2.4491    3.8875 C   0  0  0  0  0  0  0  0  0  0  0  0
    0.0433   -1.6970    4.7087 C   0  0  0  0  0  0  0  0  0  0  0  0
    0.4411   -0.4337    4.3022 C   0  0  0  0  0  0  0  0  0  0  0  0
    0.0110    0.0634    3.0699 C   0  0  0  0  0  0  0  0  0  0  0  0
   -0.8189   -0.6867    2.1990 C   0  0  0  0  0  0  0  0  0  0  0  0
    1.0364   -0.8272   -1.8444 C   0  0  0  0  0  0  0  0  0  0  0  0
    0.0549   -0.5151   -2.8183 C   0  0  0  0  0  0  0  0  0  0  0  0
   -0.2014   -1.3449   -3.9118 C   0  0  0  0  0  0  0  0  0  0  0  0
    0.5277   -2.5117   -4.0729 C   0  0  0  0  0  0  0  0  0  0  0  0
    1.5206   -2.8313   -3.1502 C   0  0  0  0  0  0  0  0  0  0  0  0
    1.7892   -1.9974   -2.0491 C   0  0  0  0  0  0  0  0  0  0  0  0
    2.8187   -2.3267   -1.1564 C   0  0  0  0  0  0  0  0  0  0  0  0
    3.1894   -1.5196   -0.0578 C   0  0  0  0  0  0  0  0  0  0  0  0
    9.1606   -4.0299    3.9622 H   0  0  0  0  0  0  0  0  0  0  0  0
    8.6246   -5.6215    2.1357 H   0  0  0  0  0  0  0  0  0  0  0  0
    6.7474   -5.1661    0.6078 H   0  0  0  0  0  0  0  0  0  0  0  0
    4.9019   -3.7325   -0.0915 H   0  0  0  0  0  0  0  0  0  0  0  0
    5.9446   -0.5446    3.5333 H   0  0  0  0  0  0  0  0  0  0  0  0
    7.8164   -1.9861    4.2565 H   0  0  0  0  0  0  0  0  0  0  0  0
    4.1360    0.8873    2.8577 H   0  0  0  0  0  0  0  0  0  0  0  0
    2.2915    1.4261    1.4174 H   0  0  0  0  0  0  0  0  0  0  0  0
    1.7463    2.4777   -1.4889 H   0  0  0  0  0  0  0  0  0  0  0  0
    1.3899    4.8893   -1.7521 H   0  0  0  0  0  0  0  0  0  0  0  0
    1.0314    7.2997   -2.0195 H   0  0  0  0  0  0  0  0  0  0  0  0
    0.6688    9.7308   -2.2877 H   0  0  0  0  0  0  0  0  0  0  0  0
   -0.6799   11.7432   -1.8431 H   0  0  0  0  0  0  0  0  0  0  0  0
   -2.7508   11.5841   -0.4878 H   0  0  0  0  0  0  0  0  0  0  0  0
   -3.4726    9.4120    0.4236 H   0  0  0  0  0  0  0  0  0  0  0  0
   -3.1095    6.9832    0.6951 H   0  0  0  0  0  0  0  0  0  0  0  0
   -2.7497    4.5723    0.9615 H   0  0  0  0  0  0  0  0  0  0  0  0
   -2.3983    2.1602    1.2174 H   0  0  0  0  0  0  0  0  0  0  0  0
   -2.5402    0.4624   -1.4080 H   0  0  0  0  0  0  0  0  0  0  0  0
   -4.1031   -0.8358   -2.6847 H   0  0  0  0  0  0  0  0  0  0  0  0
   -5.4061   -2.8210   -3.0439 H   0  0  0  0  0  0  0  0  0  0  0  0
   -6.7799   -4.8358   -3.4402 H   0  0  0  0  0  0  0  0  0  0  0  0
   -7.5273   -7.0733   -2.7261 H   0  0  0  0  0  0  0  0  0  0  0  0
   -6.6508   -8.0681   -0.6280 H   0  0  0  0  0  0  0  0  0  0  0  0
   -5.0309   -6.8242    0.7492 H   0  0  0  0  0  0  0  0  0  0  0  0
   -3.6775   -4.8288    1.1236 H   0  0  0  0  0  0  0  0  0  0  0  0
   -2.3895   -3.6934    2.2476 H   0  0  0  0  0  0  0  0  0  0  0  0
   -1.1049   -3.4340    4.2292 H   0  0  0  0  0  0  0  0  0  0  0  0
    0.3753   -2.0963    5.6627 H   0  0  0  0  0  0  0  0  0  0  0  0
    1.0855    0.1690    4.9358 H   0  0  0  0  0  0  0  0  0  0  0  0
    0.3309    1.0653    2.7947 H   0  0  0  0  0  0  0  0  0  0  0  0
   -0.5294    0.3977   -2.7353 H   0  0  0  0  0  0  0  0  0  0  0  0
   -0.9734   -1.0773   -4.6275 H   0  0  0  0  0  0  0  0  0  0  0  0
    0.3306   -3.1702   -4.9139 H   0  0  0  0  0  0  0  0  0  0  0  0
    2.0921   -3.7450   -3.2997 H   0  0  0  0  0  0  0  0  0  0  0  0
    3.3670   -3.2426   -1.3593 H   0  0  0  0  0  0  0  0  0  0  0  0
  1  2  4  0
  2  3  4  0
  3  4  4  0
  4  5  4  0
  5  6  4  0
  6  7  4  0
  7  8  4  0
  8  9  4  0
  9 10  4  0
  7 11  4  0
 11 12  4  0
 12 13  4  0
 13 14  4  0
 14 15  1  0
 15 16  4  0
 16 17  4  0
 17 18  4  0
 18 19  4  0
 19 20  4  0
 20 21  4  0
 21 22  4  0
 22 23  4  0
 23 24  4  0
 24 25  4  0
 25 26  4  0
 26 27  4  0
 27 28  4  0
 28 29  4  0
 29 30  4  0
 30 31  4  0
 31 32  4  0
 32 33  1  0
 33 34  4  0
 34 35  4  0
 35 36  4  0
 36 37  4  0
 37 38  4  0
 38 39  4  0
 39 40  4  0
 40 41  4  0
 41 42  4  0
 42 43  4  0
 43 44  4  0
 44 45  4  0
 45 46  4  0
 46 47  4  0
 47 48  4  0
 48 49  4  0
 49 50  4  0
 50 51  4  0
 51 52  4  0
 52 53  4  0
 53 54  4  0
 14 55  4  0
 55 56  4  0
 56 57  4  0
 57 58  4  0
 58 59  4  0
 59 60  4  0
 60 61  4  0
 61 62  4  0
 10  1  4  0
 62 13  4  0
  9  4  4  0
 32 15  4  0
 54 33  4  0
 60 55  4  0
 62  6  4  0
 30 17  4  0
 47 34  4  0
 54 49  4  0
 28 19  4  0
 46 37  4  0
 26 21  4  0
 44 39  4  0
  1 63  1  0
  2 64  1  0
  3 65  1  0
  5 66  1  0
  8 67  1  0
 10 68  1  0
 11 69  1  0
 12 70  1  0
 16 71  1  0
 18 72  1  0
 20 73  1  0
 22 74  1  0
 23 75  1  0
 24 76  1  0
 25 77  1  0
 27 78  1  0
 29 79  1  0
 31 80  1  0
 35 81  1  0
 36 82  1  0
 38 83  1  0
 40 84  1  0
 41 85  1  0
 42 86  1  0
 43 87  1  0
 45 88  1  0
 48 89  1  0
 50 90  1  0
 51 91  1  0
 52 92  1  0
 53 93  1  0
 56 94  1  0
 57 95  1  0
 58 96  1  0
 59 97  1  0
 61 98  1  0
M  END
