
     RDKit          3D

 98111  0  0  0  0  0  0  0  0999 V2000
    1.7518    3.0159    5.0448 C   0  0  0  0  0  0  0  0  0  0  0  0
    2.5263    2.5430    3.9907 C   0  0  0  0  0  0  0  0  0  0  0  0
    1.9227    2.2300    2.7719 C   0  0  0  0  0  0  0  0  0  0  0  0
    0.5377    2.3916    2.5891 C   0  0  0  0  0  0  0  0  0  0  0  0
   -0.0906    2.0844    1.3637 C   0  0  0  0  0  0  0  0  0  0  0  0
   -1.4742    2.2624    1.0999 C   0  0  0  0  0  0  0  0  0  0  0  0
   -2.2093    2.7931    2.1941 C   0  0  0  0  0  0  0  0  0  0  0  0
   -1.6080    3.0592    3.4384 C   0  0  0  0  0  0  0  0  0  0  0  0
   -0.2383    2.8760    3.6487 C   0  0  0  0  0  0  0  0  0  0  0  0
    0.3763    3.1802    4.8764 C   0  0  0  0  0  0  0  0  0  0  0  0
   -3.5545    3.1021    2.0463 C   0  0  0  0  0  0  0  0  0  0  0  0
   -4.1721    2.9714    0.8139 C   0  0  0  0  0  0  0  0  0  0  0  0
   -3.4850    2.4710   -0.2932 C   0  0  0  0  0  0  0  0  0  0  0  0
   -4.1846    2.4516   -1.5048 C   0  0  0  0  0  0  0  0  0  0  0  0
   -3.6106    1.9980   -2.6889 C   0  0  0  0  0  0  0  0  0  0  0  0
   -4.3380    2.0680   -3.8919 C   0  0  0  0  0  0  0  0  0  0  0  0
   -3.7951    1.6114   -5.0890 C   0  0  0  0  0  0  0  0  0  0  0  0
   -2.5177    1.0774   -5.0941 C   0  0  0  0  0  0  0  0  0  0  0  0
   -1.7959    0.9984   -3.8999 C   0  0  0  0  0  0  0  0  0  0  0  0
   -2.3176    1.4511   -2.6578 C   0  0  0  0  0  0  0  0  0  0  0  0
   -1.6223    1.3686   -1.3925 C   0  0  0  0  0  0  0  0  0  0  0  0
   -0.4337    0.4650   -1.3424 C   0  0  0  0  0  0  0  0  0  0  0  0
    0.8347    0.9675   -1.6988 C   0  0  0  0  0  0  0  0  0  0  0  0
    1.9747    0.1496   -1.7168 C   0  0  0  0  0  0  0  0  0  0  0  0
    3.2392    0.6706   -2.0327 C   0  0  0  0  0  0  0  0  0  0  0  0
    4.3825   -0.1449   -2.0538 C   0  0  0  0  0  0  0  0  0  0  0  0
    5.6480    0.3779   -2.3684 C   0  0  0  0  0  0  0  0  0  0  0  0
    6.7914   -0.4372   -2.3933 C   0  0  0  0  0  0  0  0  0  0  0  0
    8.0565    0.0844   -2.7101 C   0  0  0  0  0  0  0  0  0  0  0  0
    9.1829   -0.7393   -2.7326 C   0  0  0  0  0  0  0  0  0  0  0  0
    9.0594   -2.0935   -2.4383 C   0  0  0  0  0  0  0  0  0  0  0  0
    7.8091   -2.6264   -2.1207 C   0  0  0  0  0  0  0  0  0  0  0  0
    6.6659   -1.8107   -2.0944 C   0  0  0  0  0  0  0  0  0  0  0  0
    5.4003   -2.3319   -1.7781 C   0  0  0  0  0  0  0  0  0  0  0  0
    4.2567   -1.5156   -1.7545 C   0  0  0  0  0  0  0  0  0  0  0  0
    2.9901   -2.0365   -1.4404 C   0  0  0  0  0  0  0  0  0  0  0  0
    1.8481   -1.2198   -1.4155 C   0  0  0  0  0  0  0  0  0  0  0  0
    0.5819   -1.7430   -1.1092 C   0  0  0  0  0  0  0  0  0  0  0  0
   -0.5670   -0.9264   -1.0577 C   0  0  0  0  0  0  0  0  0  0  0  0
   -1.9100   -1.5528   -0.8544 C   0  0  0  0  0  0  0  0  0  0  0  0
   -2.5969   -1.4867    0.4282 C   0  0  0  0  0  0  0  0  0  0  0  0
   -4.0017   -1.6804    0.3698 C   0  0  0  0  0  0  0  0  0  0  0  0
   -4.6430   -2.0897   -0.8040 C   0  0  0  0  0  0  0  0  0  0  0  0
   -3.9474   -2.3342   -1.9845 C   0  0  0  0  0  0  0  0  0  0  0  0
   -4.6368   -2.8104   -3.1156 C   0  0  0  0  0  0  0  0  0  0  0  0
   -3.9751   -3.0431   -4.3171 C   0  0  0  0  0  0  0  0  0  0  0  0
   -2.6154   -2.7963   -4.4007 C   0  0  0  0  0  0  0  0  0  0  0  0
   -1.9289   -2.3151   -3.2820 C   0  0  0  0  0  0  0  0  0  0  0  0
   -2.5685   -2.0687   -2.0360 C   0  0  0  0  0  0  0  0  0  0  0  0
   -4.8119   -1.4728    1.4871 C   0  0  0  0  0  0  0  0  0  0  0  0
   -4.2694   -1.1296    2.7140 C   0  0  0  0  0  0  0  0  0  0  0  0
   -2.8921   -1.0591    2.8771 C   0  0  0  0  0  0  0  0  0  0  0  0
   -2.3929   -0.8301    4.1718 C   0  0  0  0  0  0  0  0  0  0  0  0
   -1.0228   -0.8580    4.4457 C   0  0  0  0  0  0  0  0  0  0  0  0
   -0.5210   -0.6683    5.7451 C   0  0  0  0  0  0  0  0  0  0  0  0
    0.8494   -0.7373    5.9959 C   0  0  0  0  0  0  0  0  0  0  0  0
    1.7315   -0.9965    4.9525 C   0  0  0  0  0  0  0  0  0  0  0  0
    1.2427   -1.1773    3.6578 C   0  0  0  0  0  0  0  0  0  0  0  0
   -0.1355   -1.1055    3.3898 C   0  0  0  0  0  0  0  0  0  0  0  0
   -0.6495   -1.2815    2.0880 C   0  0  0  0  0  0  0  0  0  0  0  0
   -2.0308   -1.2560    1.7647 C   0  0  0  0  0  0  0  0  0  0  0  0
   -2.1449    2.0126   -0.1904 C   0  0  0  0  0  0  0  0  0  0  0  0
    2.2149    3.2545    5.9980 H   0  0  0  0  0  0  0  0  0  0  0  0
    3.5968    2.4084    4.1165 H   0  0  0  0  0  0  0  0  0  0  0  0
    2.5383    1.8482    1.9606 H   0  0  0  0  0  0  0  0  0  0  0  0
    0.5635    1.7229    0.5871 H   0  0  0  0  0  0  0  0  0  0  0  0
   -2.2136    3.4495    4.2542 H   0  0  0  0  0  0  0  0  0  0  0  0
   -0.2160    3.5513    5.7089 H   0  0  0  0  0  0  0  0  0  0  0  0
   -4.1321    3.5004    2.8772 H   0  0  0  0  0  0  0  0  0  0  0  0
   -5.2127    3.2800    0.7305 H   0  0  0  0  0  0  0  0  0  0  0  0
   -5.2052    2.8323   -1.5353 H   0  0  0  0  0  0  0  0  0  0  0  0
   -5.3439    2.4823   -3.9022 H   0  0  0  0  0  0  0  0  0  0  0  0
   -4.3696    1.6705   -6.0085 H   0  0  0  0  0  0  0  0  0  0  0  0
   -2.0787    0.7115   -6.0178 H   0  0  0  0  0  0  0  0  0  0  0  0
   -0.7993    0.5663   -3.9523 H   0  0  0  0  0  0  0  0  0  0  0  0
    0.9235    2.0239   -1.9524 H   0  0  0  0  0  0  0  0  0  0  0  0
    3.3354    1.7301   -2.2644 H   0  0  0  0  0  0  0  0  0  0  0  0
    5.7439    1.4374   -2.5992 H   0  0  0  0  0  0  0  0  0  0  0  0
    8.1741    1.1404   -2.9433 H   0  0  0  0  0  0  0  0  0  0  0  0
   10.1556   -0.3224   -2.9804 H   0  0  0  0  0  0  0  0  0  0  0  0
    9.9354   -2.7367   -2.4557 H   0  0  0  0  0  0  0  0  0  0  0  0
    7.7337   -3.6874   -1.8934 H   0  0  0  0  0  0  0  0  0  0  0  0
    5.3039   -3.3914   -1.5477 H   0  0  0  0  0  0  0  0  0  0  0  0
    2.8915   -3.0964   -1.2115 H   0  0  0  0  0  0  0  0  0  0  0  0
    0.4724   -2.8093   -0.9117 H   0  0  0  0  0  0  0  0  0  0  0  0
   -5.7207   -2.2500   -0.7926 H   0  0  0  0  0  0  0  0  0  0  0  0
   -5.7067   -3.0024   -3.0667 H   0  0  0  0  0  0  0  0  0  0  0  0
   -4.5217   -3.4097   -5.1810 H   0  0  0  0  0  0  0  0  0  0  0  0
   -2.0827   -2.9671   -5.3318 H   0  0  0  0  0  0  0  0  0  0  0  0
   -0.8641   -2.1293   -3.4009 H   0  0  0  0  0  0  0  0  0  0  0  0
   -5.8929   -1.5799    1.4184 H   0  0  0  0  0  0  0  0  0  0  0  0
   -4.9409   -0.9740    3.5547 H   0  0  0  0  0  0  0  0  0  0  0  0
   -3.0877   -0.6607    4.9923 H   0  0  0  0  0  0  0  0  0  0  0  0
   -1.1982   -0.4685    6.5715 H   0  0  0  0  0  0  0  0  0  0  0  0
    1.2264   -0.5862    7.0031 H   0  0  0  0  0  0  0  0  0  0  0  0
    2.8001   -1.0458    5.1399 H   0  0  0  0  0  0  0  0  0  0  0  0
    1.9476   -1.3642    2.8509 H   0  0  0  0  0  0  0  0  0  0  0  0
    0.0789   -1.4864    1.3178 H   0  0  0  0  0  0  0  0  0  0  0  0
  1  2  4  0
  2  3  4  0
  3  4  4  0
  4  5  4  0
  5  6  4  0
  6  7  4  0
  7  8  4  0
  8  9  4  0
  9 10  4  0
  7 11  4  0
 11 12  4  0
 12 13  4  0
 13 14  4  0
 14 15  4  0
 15 16  4  0
 16 17  4  0
 17 18  4  0
 18 19  4  0
 19 20  4  0
 20 21  4  0
 21 22  1  0
 22 23  4  0
 23 24  4  0
 24 25  4  0
 25 26  4  0
 26 27  4  0
 27 28  4  0
 28 29  4  0
 29 30  4  0
 30 31  4  0
 31 32  4  0
 32 33  4  0
 33 34  4  0
 34 35  4  0
 35 36  4  0
 36 37  4  0
 37 38  4  0
 38 39  4  0
 39 40  1  0
 40 41  4  0
 41 42  4  0
 42 43  4  0
 43 44  4  0
 44 45  4  0
 45 46  4  0
 46 47  4  0
 47 48  4  0
 48 49  4  0
 42 50  4  0
 50 51  4  0
 51 52  4  0
 52 53  4  0
 53 54  4  0
 54 55  4  0
 55 56  4  0
 56 57  4  0
 57 58  4  0
 58 59  4  0
 59 60  4  0
 60 61  4  0
 21 62  4  0
 10  1  4  0
 62 13  4  0
  9  4  4  0
 20 15  4  0
 39 22  4  0
 49 40  4  0
 61 52  4  0
 62  6  4  0
 37 24  4  0
 61 41  4  0
 35 26  4  0
 49 44  4  0
 59 54  4  0
 33 28  4  0
  1 63  1  0
  2 64  1  0
  3 65  1  0
  5 66  1  0
  8 67  1  0
 10 68  1  0
 11 69  1  0
 12 70  1  0
 14 71  1  0
 16 72  1  0
 17 73  1  0
 18 74  1  0
 19 75  1  0
 23 76  1  0
 25 77  1  0
 27 78  1  0
 29 79  1  0
 30 80  1  0
 31 81  1  0
 32 82  1  0
 34 83  1  0
 36 84  1  0
 38 85  1  0
 43 86  1  0
 45 87  1  0
 46 88  1  0
 47 89  1  0
 48 90  1  0
 50 91  1  0
 51 92  1  0
 53 93  1  0
 55 94  1  0
 56 95  1  0
 57 96  1  0
 58 97  1  0
 60 98  1  0
M  END
