
     RDKit          3D

 90103  0  0  0  0  0  0  0  0999 V2000
   -1.8616   -5.5126   -5.4681 C   0  0  0  0  0  0  0  0  0  0  0  0
   -2.7405   -6.2438   -4.6856 C   0  0  0  0  0  0  0  0  0  0  0  0
   -3.1340   -5.7524   -3.4370 C   0  0  0  0  0  0  0  0  0  0  0  0
   -2.6661   -4.5136   -2.9248 C   0  0  0  0  0  0  0  0  0  0  0  0
   -1.7706   -3.7890   -3.7469 C   0  0  0  0  0  0  0  0  0  0  0  0
   -1.3800   -4.2933   -5.0001 C   0  0  0  0  0  0  0  0  0  0  0  0
   -1.2676   -2.5589   -3.3141 C   0  0  0  0  0  0  0  0  0  0  0  0
   -1.6292   -2.0134   -2.0789 C   0  0  0  0  0  0  0  0  0  0  0  0
   -1.1112   -0.7769   -1.6786 C   0  0  0  0  0  0  0  0  0  0  0  0
   -1.4381   -0.1982   -0.4408 C   0  0  0  0  0  0  0  0  0  0  0  0
   -0.8329    1.1090   -0.1038 C   0  0  0  0  0  0  0  0  0  0  0  0
   -1.5516    2.2819   -0.4096 C   0  0  0  0  0  0  0  0  0  0  0  0
   -1.0416    3.5588   -0.1260 C   0  0  0  0  0  0  0  0  0  0  0  0
   -1.7674    4.7226   -0.4297 C   0  0  0  0  0  0  0  0  0  0  0  0
   -1.2561    6.0003   -0.1461 C   0  0  0  0  0  0  0  0  0  0  0  0
   -1.9818    7.1644   -0.4506 C   0  0  0  0  0  0  0  0  0  0  0  0
   -1.4705    8.4417   -0.1668 C   0  0  0  0  0  0  0  0  0  0  0  0
   -2.1950    9.6059   -0.4718 C   0  0  0  0  0  0  0  0  0  0  0  0
   -1.6732   10.8680   -0.1836 C   0  0  0  0  0  0  0  0  0  0  0  0
   -0.4215   10.9823    0.4131 C   0  0  0  0  0  0  0  0  0  0  0  0
    0.3106    9.8348    0.7220 C   0  0  0  0  0  0  0  0  0  0  0  0
   -0.2008    8.5577    0.4377 C   0  0  0  0  0  0  0  0  0  0  0  0
    0.5239    7.3934    0.7414 C   0  0  0  0  0  0  0  0  0  0  0  0
    0.0118    6.1163    0.4565 C   0  0  0  0  0  0  0  0  0  0  0  0
    0.7370    4.9517    0.7593 C   0  0  0  0  0  0  0  0  0  0  0  0
    0.2250    3.6747    0.4750 C   0  0  0  0  0  0  0  0  0  0  0  0
    0.9491    2.5105    0.7771 C   0  0  0  0  0  0  0  0  0  0  0  0
    0.4406    1.2251    0.5017 C   0  0  0  0  0  0  0  0  0  0  0  0
    1.2669    0.0483    0.8506 C   0  0  0  0  0  0  0  0  0  0  0  0
    2.0529   -0.5309   -0.1596 C   0  0  0  0  0  0  0  0  0  0  0  0
    2.8618   -1.6475    0.0786 C   0  0  0  0  0  0  0  0  0  0  0  0
    3.6184   -2.1996   -0.9591 C   0  0  0  0  0  0  0  0  0  0  0  0
    4.4357   -3.3151   -0.7564 C   0  0  0  0  0  0  0  0  0  0  0  0
    5.1757   -3.8342   -1.8336 C   0  0  0  0  0  0  0  0  0  0  0  0
    6.0012   -4.9432   -1.6725 C   0  0  0  0  0  0  0  0  0  0  0  0
    6.0960   -5.5470   -0.4290 C   0  0  0  0  0  0  0  0  0  0  0  0
    5.3642   -5.0391    0.6489 C   0  0  0  0  0  0  0  0  0  0  0  0
    4.5117   -3.9105    0.5252 C   0  0  0  0  0  0  0  0  0  0  0  0
    3.7384   -3.3500    1.6032 C   0  0  0  0  0  0  0  0  0  0  0  0
    2.9130   -2.2157    1.3656 C   0  0  0  0  0  0  0  0  0  0  0  0
    2.1328   -1.6332    2.4066 C   0  0  0  0  0  0  0  0  0  0  0  0
    1.3106   -0.4997    2.1585 C   0  0  0  0  0  0  0  0  0  0  0  0
    0.5700    0.0333    3.2381 C   0  0  0  0  0  0  0  0  0  0  0  0
    0.6233   -0.5264    4.5122 C   0  0  0  0  0  0  0  0  0  0  0  0
    1.4250   -1.6358    4.7435 C   0  0  0  0  0  0  0  0  0  0  0  0
    2.1811   -2.1933    3.7055 C   0  0  0  0  0  0  0  0  0  0  0  0
    2.9879   -3.3045    3.9444 C   0  0  0  0  0  0  0  0  0  0  0  0
    3.7471   -3.8674    2.9169 C   0  0  0  0  0  0  0  0  0  0  0  0
   -2.3407   -0.8735    0.4200 C   0  0  0  0  0  0  0  0  0  0  0  0
   -2.8709   -2.1302    0.0180 C   0  0  0  0  0  0  0  0  0  0  0  0
   -3.7662   -2.8184    0.8713 C   0  0  0  0  0  0  0  0  0  0  0  0
   -4.1332   -2.2654    2.1039 C   0  0  0  0  0  0  0  0  0  0  0  0
   -3.6273   -1.0353    2.5010 C   0  0  0  0  0  0  0  0  0  0  0  0
   -2.7453   -0.3502    1.6689 C   0  0  0  0  0  0  0  0  0  0  0  0
   -4.2815   -4.0510    0.4749 C   0  0  0  0  0  0  0  0  0  0  0  0
   -3.9270   -4.6083   -0.7550 C   0  0  0  0  0  0  0  0  0  0  0  0
   -3.0429   -3.9644   -1.6479 C   0  0  0  0  0  0  0  0  0  0  0  0
   -2.5164   -2.7088   -1.2354 C   0  0  0  0  0  0  0  0  0  0  0  0
   -1.5490   -5.8868   -6.4388 H   0  0  0  0  0  0  0  0  0  0  0  0
   -3.1233   -7.1975   -5.0391 H   0  0  0  0  0  0  0  0  0  0  0  0
   -3.8234   -6.3667   -2.8653 H   0  0  0  0  0  0  0  0  0  0  0  0
   -0.6902   -3.7329   -5.6282 H   0  0  0  0  0  0  0  0  0  0  0  0
   -0.5770   -2.0121   -3.9545 H   0  0  0  0  0  0  0  0  0  0  0  0
   -0.4284   -0.2437   -2.3392 H   0  0  0  0  0  0  0  0  0  0  0  0
   -2.5313    2.1867   -0.8778 H   0  0  0  0  0  0  0  0  0  0  0  0
   -2.7477    4.6325   -0.8949 H   0  0  0  0  0  0  0  0  0  0  0  0
   -2.9614    7.0758   -0.9169 H   0  0  0  0  0  0  0  0  0  0  0  0
   -3.1751    9.5378   -0.9387 H   0  0  0  0  0  0  0  0  0  0  0  0
   -2.2445   11.7605   -0.4256 H   0  0  0  0  0  0  0  0  0  0  0  0
   -0.0132   11.9641    0.6383 H   0  0  0  0  0  0  0  0  0  0  0  0
    1.2873    9.9457    1.1878 H   0  0  0  0  0  0  0  0  0  0  0  0
    1.5036    7.4837    1.2072 H   0  0  0  0  0  0  0  0  0  0  0  0
    1.7174    5.0408    1.2246 H   0  0  0  0  0  0  0  0  0  0  0  0
    1.9317    2.5954    1.2410 H   0  0  0  0  0  0  0  0  0  0  0  0
    2.0222   -0.0960   -1.1579 H   0  0  0  0  0  0  0  0  0  0  0  0
    3.5674   -1.7508   -1.9499 H   0  0  0  0  0  0  0  0  0  0  0  0
    5.1134   -3.3728   -2.8173 H   0  0  0  0  0  0  0  0  0  0  0  0
    6.5665   -5.3318   -2.5152 H   0  0  0  0  0  0  0  0  0  0  0  0
    6.7374   -6.4136   -0.2898 H   0  0  0  0  0  0  0  0  0  0  0  0
    5.4757   -5.5522    1.5998 H   0  0  0  0  0  0  0  0  0  0  0  0
   -0.0683    0.9024    3.0955 H   0  0  0  0  0  0  0  0  0  0  0  0
    0.0381   -0.0967    5.3204 H   0  0  0  0  0  0  0  0  0  0  0  0
    1.4555   -2.0632    5.7430 H   0  0  0  0  0  0  0  0  0  0  0  0
    3.0366   -3.7512    4.9351 H   0  0  0  0  0  0  0  0  0  0  0  0
    4.3519   -4.7319    3.1747 H   0  0  0  0  0  0  0  0  0  0  0  0
   -4.8193   -2.7900    2.7649 H   0  0  0  0  0  0  0  0  0  0  0  0
   -3.9155   -0.6083    3.4575 H   0  0  0  0  0  0  0  0  0  0  0  0
   -2.3703    0.6110    2.0128 H   0  0  0  0  0  0  0  0  0  0  0  0
   -4.9686   -4.5972    1.1175 H   0  0  0  0  0  0  0  0  0  0  0  0
   -4.3667   -5.5709   -0.9988 H   0  0  0  0  0  0  0  0  0  0  0  0
  1  2  4  0
  2  3  4  0
  3  4  4  0
  4  5  4  0
  5  6  4  0
  5  7  4  0
  7  8  4  0
  8  9  4  0
  9 10  4  0
 10 11  1  0
 11 12  4  0
 12 13  4  0
 13 14  4  0
 14 15  4  0
 15 16  4  0
 16 17  4  0
 17 18  4  0
 18 19  4  0
 19 20  4  0
 20 21  4  0
 21 22  4  0
 22 23  4  0
 23 24  4  0
 24 25  4  0
 25 26  4  0
 26 27  4  0
 27 28  4  0
 28 29  1  0
 29 30  4  0
 30 31  4  0
 31 32  4  0
 32 33  4  0
 33 34  4  0
 34 35  4  0
 35 36  4  0
 36 37  4  0
 37 38  4  0
 38 39  4  0
 39 40  4  0
 40 41  4  0
 41 42  4  0
 42 43  4  0
 43 44  4  0
 44 45  4  0
 45 46  4  0
 46 47  4  0
 47 48  4  0
 10 49  4  0
 49 50  4  0
 50 51  4  0
 51 52  4  0
 52 53  4  0
 53 54  4  0
 51 55  4  0
 55 56  4  0
 56 57  4  0
 57 58  4  0
  6  1  4  0
 58  8  4  0
 57  4  4  0
 28 11  4  0
 42 29  4  0
 54 49  4  0
 26 13  4  0
 40 31  4  0
 46 41  4  0
 58 50  4  0
 24 15  4  0
 38 33  4  0
 48 39  4  0
 22 17  4  0
  1 59  1  0
  2 60  1  0
  3 61  1  0
  6 62  1  0
  7 63  1  0
  9 64  1  0
 12 65  1  0
 14 66  1  0
 16 67  1  0
 18 68  1  0
 19 69  1  0
 20 70  1  0
 21 71  1  0
 23 72  1  0
 25 73  1  0
 27 74  1  0
 30 75  1  0
 32 76  1  0
 34 77  1  0
 35 78  1  0
 36 79  1  0
 37 80  1  0
 43 81  1  0
 44 82  1  0
 45 83  1  0
 47 84  1  0
 48 85  1  0
 52 86  1  0
 53 87  1  0
 54 88  1  0
 55 89  1  0
 56 90  1  0
M  END
