
     RDKit          3D

 90103  0  0  0  0  0  0  0  0999 V2000
   -3.8962   -8.8081    0.4403 C   0  0  0  0  0  0  0  0  0  0  0  0
   -3.3434   -8.3423    1.6224 C   0  0  0  0  0  0  0  0  0  0  0  0
   -2.9367   -7.0083    1.7228 C   0  0  0  0  0  0  0  0  0  0  0  0
   -3.0668   -6.0917    0.6472 C   0  0  0  0  0  0  0  0  0  0  0  0
   -3.6357   -6.5955   -0.5484 C   0  0  0  0  0  0  0  0  0  0  0  0
   -4.0409   -7.9390   -0.6373 C   0  0  0  0  0  0  0  0  0  0  0  0
   -3.7986   -5.7547   -1.6542 C   0  0  0  0  0  0  0  0  0  0  0  0
   -3.4121   -4.4122   -1.6154 C   0  0  0  0  0  0  0  0  0  0  0  0
   -3.5867   -3.5911   -2.7378 C   0  0  0  0  0  0  0  0  0  0  0  0
   -3.2050   -2.2505   -2.7103 C   0  0  0  0  0  0  0  0  0  0  0  0
   -2.6394   -1.6975   -1.5580 C   0  0  0  0  0  0  0  0  0  0  0  0
   -2.4562   -2.5128   -0.4173 C   0  0  0  0  0  0  0  0  0  0  0  0
   -1.8847   -1.9527    0.7429 C   0  0  0  0  0  0  0  0  0  0  0  0
   -1.5100   -0.5993    0.7555 C   0  0  0  0  0  0  0  0  0  0  0  0
   -1.6802    0.2173   -0.3711 C   0  0  0  0  0  0  0  0  0  0  0  0
   -1.2764    1.6367   -0.3555 C   0  0  0  0  0  0  0  0  0  0  0  0
   -2.2795    2.6216   -0.4726 C   0  0  0  0  0  0  0  0  0  0  0  0
   -1.9829    3.9940   -0.4634 C   0  0  0  0  0  0  0  0  0  0  0  0
   -2.9919    4.9647   -0.5803 C   0  0  0  0  0  0  0  0  0  0  0  0
   -2.6924    6.3372   -0.5733 C   0  0  0  0  0  0  0  0  0  0  0  0
   -3.7013    7.3080   -0.6911 C   0  0  0  0  0  0  0  0  0  0  0  0
   -3.4014    8.6803   -0.6849 C   0  0  0  0  0  0  0  0  0  0  0  0
   -4.4092    9.6518   -0.8028 C   0  0  0  0  0  0  0  0  0  0  0  0
   -4.0946   11.0115   -0.7950 C   0  0  0  0  0  0  0  0  0  0  0  0
   -2.7697   11.4174   -0.6694 C   0  0  0  0  0  0  0  0  0  0  0  0
   -1.7572   10.4641   -0.5515 C   0  0  0  0  0  0  0  0  0  0  0  0
   -2.0577    9.0919   -0.5576 C   0  0  0  0  0  0  0  0  0  0  0  0
   -1.0500    8.1206   -0.4396 C   0  0  0  0  0  0  0  0  0  0  0  0
   -1.3513    6.7483   -0.4459 C   0  0  0  0  0  0  0  0  0  0  0  0
   -0.3437    5.7764   -0.3276 C   0  0  0  0  0  0  0  0  0  0  0  0
   -0.6448    4.4041   -0.3339 C   0  0  0  0  0  0  0  0  0  0  0  0
    0.3602    3.4308   -0.2142 C   0  0  0  0  0  0  0  0  0  0  0  0
    0.0710    2.0504   -0.2222 C   0  0  0  0  0  0  0  0  0  0  0  0
    1.1906    1.0981   -0.0969 C   0  0  0  0  0  0  0  0  0  0  0  0
    1.5480    0.2542   -1.1574 C   0  0  0  0  0  0  0  0  0  0  0  0
    2.6029   -0.6645   -1.0380 C   0  0  0  0  0  0  0  0  0  0  0  0
    3.3336   -0.7424    0.1704 C   0  0  0  0  0  0  0  0  0  0  0  0
    2.9872    0.1086    1.2392 C   0  0  0  0  0  0  0  0  0  0  0  0
    1.9259    1.0164    1.0946 C   0  0  0  0  0  0  0  0  0  0  0  0
    3.7095    0.0282    2.4292 C   0  0  0  0  0  0  0  0  0  0  0  0
    4.7625   -0.8817    2.5629 C   0  0  0  0  0  0  0  0  0  0  0  0
    5.1459   -1.7553    1.5188 C   0  0  0  0  0  0  0  0  0  0  0  0
    4.4056   -1.6690    0.3096 C   0  0  0  0  0  0  0  0  0  0  0  0
    4.7249   -2.5088   -0.7791 C   0  0  0  0  0  0  0  0  0  0  0  0
    5.7730   -3.4258   -0.6611 C   0  0  0  0  0  0  0  0  0  0  0  0
    6.5216   -3.5343    0.5153 C   0  0  0  0  0  0  0  0  0  0  0  0
    7.5670   -4.4721    0.5843 C   0  0  0  0  0  0  0  0  0  0  0  0
    8.3355   -4.6107    1.7366 C   0  0  0  0  0  0  0  0  0  0  0  0
    8.0665   -3.8112    2.8358 C   0  0  0  0  0  0  0  0  0  0  0  0
    7.0292   -2.8755    2.7792 C   0  0  0  0  0  0  0  0  0  0  0  0
    6.2236   -2.7040    1.6237 C   0  0  0  0  0  0  0  0  0  0  0  0
    3.9908   -2.4204   -1.9695 C   0  0  0  0  0  0  0  0  0  0  0  0
    2.9429   -1.5096   -2.0981 C   0  0  0  0  0  0  0  0  0  0  0  0
   -2.2513   -0.3488   -1.5205 C   0  0  0  0  0  0  0  0  0  0  0  0
   -1.7003   -2.7618    1.8635 C   0  0  0  0  0  0  0  0  0  0  0  0
   -2.0818   -4.1068    1.8421 C   0  0  0  0  0  0  0  0  0  0  0  0
   -2.6624   -4.7111    0.7028 C   0  0  0  0  0  0  0  0  0  0  0  0
   -2.8426   -3.8831   -0.4372 C   0  0  0  0  0  0  0  0  0  0  0  0
   -4.2147   -9.8433    0.3542 H   0  0  0  0  0  0  0  0  0  0  0  0
   -3.2255   -9.0113    2.4709 H   0  0  0  0  0  0  0  0  0  0  0  0
   -2.5109   -6.6972    2.6724 H   0  0  0  0  0  0  0  0  0  0  0  0
   -4.4776   -8.3230   -1.5573 H   0  0  0  0  0  0  0  0  0  0  0  0
   -4.2371   -6.1546   -2.5673 H   0  0  0  0  0  0  0  0  0  0  0  0
   -4.0242   -3.9899   -3.6505 H   0  0  0  0  0  0  0  0  0  0  0  0
   -3.3552   -1.6429   -3.5999 H   0  0  0  0  0  0  0  0  0  0  0  0
   -1.0732   -0.1728    1.6570 H   0  0  0  0  0  0  0  0  0  0  0  0
   -3.3180    2.3035   -0.5631 H   0  0  0  0  0  0  0  0  0  0  0  0
   -4.0285    4.6465   -0.6788 H   0  0  0  0  0  0  0  0  0  0  0  0
   -4.7379    6.9904   -0.7894 H   0  0  0  0  0  0  0  0  0  0  0  0
   -5.4509    9.3549   -0.9022 H   0  0  0  0  0  0  0  0  0  0  0  0
   -4.8846   11.7522   -0.8870 H   0  0  0  0  0  0  0  0  0  0  0  0
   -2.5226   12.4757   -0.6632 H   0  0  0  0  0  0  0  0  0  0  0  0
   -0.7276   10.8013   -0.4545 H   0  0  0  0  0  0  0  0  0  0  0  0
   -0.0136    8.4387   -0.3413 H   0  0  0  0  0  0  0  0  0  0  0  0
    0.6932    6.0935   -0.2292 H   0  0  0  0  0  0  0  0  0  0  0  0
    1.3990    3.7477   -0.1216 H   0  0  0  0  0  0  0  0  0  0  0  0
    0.9881    0.3105   -2.0896 H   0  0  0  0  0  0  0  0  0  0  0  0
    1.6560    1.6647    1.9269 H   0  0  0  0  0  0  0  0  0  0  0  0
    3.4626    0.6710    3.2714 H   0  0  0  0  0  0  0  0  0  0  0  0
    5.2809   -0.8913    3.5174 H   0  0  0  0  0  0  0  0  0  0  0  0
    6.0110   -4.0707   -1.5056 H   0  0  0  0  0  0  0  0  0  0  0  0
    7.7930   -5.1087   -0.2690 H   0  0  0  0  0  0  0  0  0  0  0  0
    9.1397   -5.3403    1.7726 H   0  0  0  0  0  0  0  0  0  0  0  0
    8.6595   -3.9100    3.7412 H   0  0  0  0  0  0  0  0  0  0  0  0
    6.8623   -2.2756    3.6691 H   0  0  0  0  0  0  0  0  0  0  0  0
    4.2267   -3.0657   -2.8131 H   0  0  0  0  0  0  0  0  0  0  0  0
    2.3922   -1.4704   -3.0353 H   0  0  0  0  0  0  0  0  0  0  0  0
   -2.3858    0.2735   -2.4041 H   0  0  0  0  0  0  0  0  0  0  0  0
   -1.2518   -2.3581    2.7688 H   0  0  0  0  0  0  0  0  0  0  0  0
   -1.9080   -4.6776    2.7497 H   0  0  0  0  0  0  0  0  0  0  0  0
  1  2  4  0
  2  3  4  0
  3  4  4  0
  4  5  4  0
  5  6  4  0
  5  7  4  0
  7  8  4  0
  8  9  4  0
  9 10  4  0
 10 11  4  0
 11 12  4  0
 12 13  4  0
 13 14  4  0
 14 15  4  0
 15 16  1  0
 16 17  4  0
 17 18  4  0
 18 19  4  0
 19 20  4  0
 20 21  4  0
 21 22  4  0
 22 23  4  0
 23 24  4  0
 24 25  4  0
 25 26  4  0
 26 27  4  0
 27 28  4  0
 28 29  4  0
 29 30  4  0
 30 31  4  0
 31 32  4  0
 32 33  4  0
 33 34  1  0
 34 35  4  0
 35 36  4  0
 36 37  4  0
 37 38  4  0
 38 39  4  0
 38 40  4  0
 40 41  4  0
 41 42  4  0
 42 43  4  0
 43 44  4  0
 44 45  4  0
 45 46  4  0
 46 47  4  0
 47 48  4  0
 48 49  4  0
 49 50  4  0
 50 51  4  0
 44 52  4  0
 52 53  4  0
 15 54  4  0
 13 55  4  0
 55 56  4  0
 56 57  4  0
 57 58  4  0
  6  1  4  0
 58  8  4  0
 57  4  4  0
 54 11  4  0
 58 12  4  0
 33 16  4  0
 39 34  4  0
 51 42  4  0
 31 18  4  0
 53 36  4  0
 29 20  4  0
 43 37  4  0
 51 46  4  0
 27 22  4  0
  1 59  1  0
  2 60  1  0
  3 61  1  0
  6 62  1  0
  7 63  1  0
  9 64  1  0
 10 65  1  0
 14 66  1  0
 17 67  1  0
 19 68  1  0
 21 69  1  0
 23 70  1  0
 24 71  1  0
 25 72  1  0
 26 73  1  0
 28 74  1  0
 30 75  1  0
 32 76  1  0
 35 77  1  0
 39 78  1  0
 40 79  1  0
 41 80  1  0
 45 81  1  0
 47 82  1  0
 48 83  1  0
 49 84  1  0
 50 85  1  0
 52 86  1  0
 53 87  1  0
 54 88  1  0
 55 89  1  0
 56 90  1  0
M  END
