
     RDKit          3D

 90103  0  0  0  0  0  0  0  0999 V2000
    9.4018   -3.1709    0.1264 C   0  0  0  0  0  0  0  0  0  0  0  0
    8.7891   -3.8840    1.1543 C   0  0  0  0  0  0  0  0  0  0  0  0
    7.4716   -3.5933    1.5386 C   0  0  0  0  0  0  0  0  0  0  0  0
    6.7566   -2.5656    0.8763 C   0  0  0  0  0  0  0  0  0  0  0  0
    7.3852   -1.8484   -0.1640 C   0  0  0  0  0  0  0  0  0  0  0  0
    8.7041   -2.1589   -0.5290 C   0  0  0  0  0  0  0  0  0  0  0  0
    6.6763   -0.8378   -0.8125 C   0  0  0  0  0  0  0  0  0  0  0  0
    5.3624   -0.5374   -0.4397 C   0  0  0  0  0  0  0  0  0  0  0  0
    4.6913   -1.2284    0.5964 C   0  0  0  0  0  0  0  0  0  0  0  0
    5.4187   -2.2569    1.2532 C   0  0  0  0  0  0  0  0  0  0  0  0
    4.8194   -2.9936    2.2975 C   0  0  0  0  0  0  0  0  0  0  0  0
    3.5071   -2.7058    2.6813 C   0  0  0  0  0  0  0  0  0  0  0  0
    2.7655   -1.6998    2.0542 C   0  0  0  0  0  0  0  0  0  0  0  0
    1.4502   -1.4509    2.4760 C   0  0  0  0  0  0  0  0  0  0  0  0
    0.6759   -0.4598    1.8759 C   0  0  0  0  0  0  0  0  0  0  0  0
    1.1958    0.3064    0.8332 C   0  0  0  0  0  0  0  0  0  0  0  0
    0.3886    1.3530    0.1783 C   0  0  0  0  0  0  0  0  0  0  0  0
    0.7594    2.7016    0.3593 C   0  0  0  0  0  0  0  0  0  0  0  0
    0.0415    3.7573   -0.2261 C   0  0  0  0  0  0  0  0  0  0  0  0
    0.4198    5.0975   -0.0382 C   0  0  0  0  0  0  0  0  0  0  0  0
   -0.2981    6.1521   -0.6276 C   0  0  0  0  0  0  0  0  0  0  0  0
    0.0809    7.4925   -0.4408 C   0  0  0  0  0  0  0  0  0  0  0  0
   -0.6359    8.5460   -1.0320 C   0  0  0  0  0  0  0  0  0  0  0  0
   -0.2571    9.8862   -0.8467 C   0  0  0  0  0  0  0  0  0  0  0  0
   -0.9800   10.9213   -1.4415 C   0  0  0  0  0  0  0  0  0  0  0  0
   -2.0900   10.6306   -2.2284 C   0  0  0  0  0  0  0  0  0  0  0  0
   -2.4789    9.3042   -2.4218 C   0  0  0  0  0  0  0  0  0  0  0  0
   -1.7617    8.2513   -1.8302 C   0  0  0  0  0  0  0  0  0  0  0  0
   -2.1403    6.9114   -2.0155 C   0  0  0  0  0  0  0  0  0  0  0  0
   -1.4221    5.8583   -1.4239 C   0  0  0  0  0  0  0  0  0  0  0  0
   -1.8007    4.5179   -1.6090 C   0  0  0  0  0  0  0  0  0  0  0  0
   -1.0822    3.4647   -1.0184 C   0  0  0  0  0  0  0  0  0  0  0  0
   -1.4595    2.1248   -1.2019 C   0  0  0  0  0  0  0  0  0  0  0  0
   -0.7442    1.0592   -0.6176 C   0  0  0  0  0  0  0  0  0  0  0  0
   -1.2064   -0.3180   -0.8695 C   0  0  0  0  0  0  0  0  0  0  0  0
   -0.4631   -1.1960   -1.6572 C   0  0  0  0  0  0  0  0  0  0  0  0
   -0.9129   -2.4962   -1.8784 C   0  0  0  0  0  0  0  0  0  0  0  0
   -2.1187   -2.9517   -1.3228 C   0  0  0  0  0  0  0  0  0  0  0  0
   -2.5332   -4.2646   -1.5676 C   0  0  0  0  0  0  0  0  0  0  0  0
   -3.7243   -4.7658   -1.0365 C   0  0  0  0  0  0  0  0  0  0  0  0
   -4.1168   -6.0857   -1.2980 C   0  0  0  0  0  0  0  0  0  0  0  0
   -5.3026   -6.5975   -0.7727 C   0  0  0  0  0  0  0  0  0  0  0  0
   -6.1252   -5.8005    0.0282 C   0  0  0  0  0  0  0  0  0  0  0  0
   -5.7428   -4.4645    0.3015 C   0  0  0  0  0  0  0  0  0  0  0  0
   -6.5743   -3.6608    1.1107 C   0  0  0  0  0  0  0  0  0  0  0  0
   -7.7635   -4.1905    1.6333 C   0  0  0  0  0  0  0  0  0  0  0  0
   -8.1340   -5.5052    1.3606 C   0  0  0  0  0  0  0  0  0  0  0  0
   -7.3197   -6.3055    0.5624 C   0  0  0  0  0  0  0  0  0  0  0  0
   -6.1933   -2.3463    1.3765 C   0  0  0  0  0  0  0  0  0  0  0  0
   -5.0054   -1.8294    0.8505 C   0  0  0  0  0  0  0  0  0  0  0  0
   -4.1402   -2.5966    0.0351 C   0  0  0  0  0  0  0  0  0  0  0  0
   -4.5339   -3.9350   -0.2320 C   0  0  0  0  0  0  0  0  0  0  0  0
   -2.9104   -2.0958   -0.5211 C   0  0  0  0  0  0  0  0  0  0  0  0
   -2.4178   -0.7789   -0.3201 C   0  0  0  0  0  0  0  0  0  0  0  0
    2.5182    0.0562    0.4192 C   0  0  0  0  0  0  0  0  0  0  0  0
    3.3398   -0.9445    1.0045 C   0  0  0  0  0  0  0  0  0  0  0  0
    5.5402   -4.0076    2.9430 C   0  0  0  0  0  0  0  0  0  0  0  0
    6.8503   -4.3043    2.5690 C   0  0  0  0  0  0  0  0  0  0  0  0
   10.4229   -3.4036   -0.1637 H   0  0  0  0  0  0  0  0  0  0  0  0
    9.3489   -4.6708    1.6550 H   0  0  0  0  0  0  0  0  0  0  0  0
    9.1983   -1.6124   -1.3291 H   0  0  0  0  0  0  0  0  0  0  0  0
    7.1364   -0.2690   -1.6175 H   0  0  0  0  0  0  0  0  0  0  0  0
    4.8718    0.2618   -0.9879 H   0  0  0  0  0  0  0  0  0  0  0  0
    3.0521   -3.2798    3.4873 H   0  0  0  0  0  0  0  0  0  0  0  0
    1.0076   -2.0349    3.2808 H   0  0  0  0  0  0  0  0  0  0  0  0
   -0.3413   -0.2972    2.2253 H   0  0  0  0  0  0  0  0  0  0  0  0
    1.6261    2.9274    0.9805 H   0  0  0  0  0  0  0  0  0  0  0  0
    1.2889    5.3240    0.5773 H   0  0  0  0  0  0  0  0  0  0  0  0
    0.9488    7.7200    0.1755 H   0  0  0  0  0  0  0  0  0  0  0  0
    0.6077   10.1344   -0.2354 H   0  0  0  0  0  0  0  0  0  0  0  0
   -0.6755   11.9535   -1.2896 H   0  0  0  0  0  0  0  0  0  0  0  0
   -2.6544   11.4352   -2.6924 H   0  0  0  0  0  0  0  0  0  0  0  0
   -3.3496    9.0977   -3.0403 H   0  0  0  0  0  0  0  0  0  0  0  0
   -3.0087    6.6845   -2.6314 H   0  0  0  0  0  0  0  0  0  0  0  0
   -2.6696    4.2898   -2.2241 H   0  0  0  0  0  0  0  0  0  0  0  0
   -2.3259    1.8952   -1.8219 H   0  0  0  0  0  0  0  0  0  0  0  0
    0.4772   -0.8765   -2.1004 H   0  0  0  0  0  0  0  0  0  0  0  0
   -0.3028   -3.1564   -2.4920 H   0  0  0  0  0  0  0  0  0  0  0  0
   -1.9132   -4.9125   -2.1857 H   0  0  0  0  0  0  0  0  0  0  0  0
   -3.4989   -6.7325   -1.9174 H   0  0  0  0  0  0  0  0  0  0  0  0
   -5.5761   -7.6261   -0.9961 H   0  0  0  0  0  0  0  0  0  0  0  0
   -8.4115   -3.5802    2.2586 H   0  0  0  0  0  0  0  0  0  0  0  0
   -9.0573   -5.9062    1.7700 H   0  0  0  0  0  0  0  0  0  0  0  0
   -7.6251   -7.3297    0.3599 H   0  0  0  0  0  0  0  0  0  0  0  0
   -6.8153   -1.7050    1.9972 H   0  0  0  0  0  0  0  0  0  0  0  0
   -4.7710   -0.7984    1.0994 H   0  0  0  0  0  0  0  0  0  0  0  0
   -2.9778   -0.0775    0.2933 H   0  0  0  0  0  0  0  0  0  0  0  0
    2.9011    0.6630   -0.3976 H   0  0  0  0  0  0  0  0  0  0  0  0
    5.0857   -4.5803    3.7488 H   0  0  0  0  0  0  0  0  0  0  0  0
    7.3798   -5.0974    3.0919 H   0  0  0  0  0  0  0  0  0  0  0  0
  1  2  4  0
  2  3  4  0
  3  4  4  0
  4  5  4  0
  5  6  4  0
  5  7  4  0
  7  8  4  0
  8  9  4  0
  9 10  4  0
 10 11  4  0
 11 12  4  0
 12 13  4  0
 13 14  4  0
 14 15  4  0
 15 16  4  0
 16 17  1  0
 17 18  4  0
 18 19  4  0
 19 20  4  0
 20 21  4  0
 21 22  4  0
 22 23  4  0
 23 24  4  0
 24 25  4  0
 25 26  4  0
 26 27  4  0
 27 28  4  0
 28 29  4  0
 29 30  4  0
 30 31  4  0
 31 32  4  0
 32 33  4  0
 33 34  4  0
 34 35  1  0
 35 36  4  0
 36 37  4  0
 37 38  4  0
 38 39  4  0
 39 40  4  0
 40 41  4  0
 41 42  4  0
 42 43  4  0
 43 44  4  0
 44 45  4  0
 45 46  4  0
 46 47  4  0
 47 48  4  0
 45 49  4  0
 49 50  4  0
 50 51  4  0
 51 52  4  0
 51 53  4  0
 53 54  4  0
 16 55  4  0
 55 56  4  0
 11 57  4  0
 57 58  4  0
  6  1  4  0
 56  9  4  0
 58  3  4  0
 10  4  4  0
 56 13  4  0
 34 17  4  0
 54 35  4  0
 32 19  4  0
 53 38  4  0
 30 21  4  0
 52 40  4  0
 28 23  4  0
 48 43  4  0
 52 44  4  0
  1 59  1  0
  2 60  1  0
  6 61  1  0
  7 62  1  0
  8 63  1  0
 12 64  1  0
 14 65  1  0
 15 66  1  0
 18 67  1  0
 20 68  1  0
 22 69  1  0
 24 70  1  0
 25 71  1  0
 26 72  1  0
 27 73  1  0
 29 74  1  0
 31 75  1  0
 33 76  1  0
 36 77  1  0
 37 78  1  0
 39 79  1  0
 41 80  1  0
 42 81  1  0
 46 82  1  0
 47 83  1  0
 48 84  1  0
 49 85  1  0
 50 86  1  0
 54 87  1  0
 55 88  1  0
 57 89  1  0
 58 90  1  0
M  END
