
     RDKit          3D

 90103  0  0  0  0  0  0  0  0999 V2000
   -3.4220   -0.0668   -3.7828 C   0  0  0  0  0  0  0  0  0  0  0  0
   -2.0702    0.2022   -3.8022 C   0  0  0  0  0  0  0  0  0  0  0  0
   -1.2846   -0.1898   -2.7211 C   0  0  0  0  0  0  0  0  0  0  0  0
   -1.8141   -0.8530   -1.5829 C   0  0  0  0  0  0  0  0  0  0  0  0
   -3.1961   -1.1719   -1.5770 C   0  0  0  0  0  0  0  0  0  0  0  0
   -3.9690   -0.7442   -2.6925 C   0  0  0  0  0  0  0  0  0  0  0  0
   -3.7519   -1.9082   -0.4765 C   0  0  0  0  0  0  0  0  0  0  0  0
   -2.9101   -2.3498    0.5773 C   0  0  0  0  0  0  0  0  0  0  0  0
   -3.4495   -3.1345    1.6469 C   0  0  0  0  0  0  0  0  0  0  0  0
   -2.6208   -3.6048    2.6913 C   0  0  0  0  0  0  0  0  0  0  0  0
   -3.1603   -4.3765    3.7321 C   0  0  0  0  0  0  0  0  0  0  0  0
   -4.5161   -4.6891    3.7529 C   0  0  0  0  0  0  0  0  0  0  0  0
   -5.3445   -4.2323    2.7328 C   0  0  0  0  0  0  0  0  0  0  0  0
   -4.8238   -3.4597    1.6830 C   0  0  0  0  0  0  0  0  0  0  0  0
   -5.6503   -3.0024    0.6642 C   0  0  0  0  0  0  0  0  0  0  0  0
   -5.1240   -2.2500   -0.3870 C   0  0  0  0  0  0  0  0  0  0  0  0
   -1.2657   -3.2956    2.6692 C   0  0  0  0  0  0  0  0  0  0  0  0
   -0.7394   -2.5229    1.6350 C   0  0  0  0  0  0  0  0  0  0  0  0
   -1.5335   -2.0185    0.5787 C   0  0  0  0  0  0  0  0  0  0  0  0
   -0.9974   -1.2117   -0.4693 C   0  0  0  0  0  0  0  0  0  0  0  0
    0.4192   -0.7424   -0.3983 C   0  0  0  0  0  0  0  0  0  0  0  0
    1.4310   -1.5746   -0.9203 C   0  0  0  0  0  0  0  0  0  0  0  0
    2.7852   -1.2057   -0.8863 C   0  0  0  0  0  0  0  0  0  0  0  0
    3.7856   -2.0418   -1.4093 C   0  0  0  0  0  0  0  0  0  0  0  0
    5.1404   -1.6714   -1.3779 C   0  0  0  0  0  0  0  0  0  0  0  0
    6.1404   -2.5067   -1.9033 C   0  0  0  0  0  0  0  0  0  0  0  0
    7.4947   -2.1351   -1.8748 C   0  0  0  0  0  0  0  0  0  0  0  0
    8.4945   -2.9689   -2.4021 C   0  0  0  0  0  0  0  0  0  0  0  0
    9.8358   -2.5849   -2.3678 C   0  0  0  0  0  0  0  0  0  0  0  0
   10.1947   -1.3636   -1.8062 C   0  0  0  0  0  0  0  0  0  0  0  0
    9.2128   -0.5242   -1.2776 C   0  0  0  0  0  0  0  0  0  0  0  0
    7.8585   -0.8964   -1.3049 C   0  0  0  0  0  0  0  0  0  0  0  0
    6.8580   -0.0629   -0.7782 C   0  0  0  0  0  0  0  0  0  0  0  0
    5.5035   -0.4353   -0.8083 C   0  0  0  0  0  0  0  0  0  0  0  0
    4.5026    0.3992   -0.2836 C   0  0  0  0  0  0  0  0  0  0  0  0
    3.1485    0.0286   -0.3161 C   0  0  0  0  0  0  0  0  0  0  0  0
    2.1500    0.8651    0.2062 C   0  0  0  0  0  0  0  0  0  0  0  0
    0.7867    0.5066    0.1740 C   0  0  0  0  0  0  0  0  0  0  0  0
   -0.2132    1.4610    0.7402 C   0  0  0  0  0  0  0  0  0  0  0  0
   -0.7756    2.4763   -0.0896 C   0  0  0  0  0  0  0  0  0  0  0  0
   -0.3182    2.7258   -1.4046 C   0  0  0  0  0  0  0  0  0  0  0  0
   -0.8910    3.6926   -2.2292 C   0  0  0  0  0  0  0  0  0  0  0  0
   -1.9523    4.4632   -1.7692 C   0  0  0  0  0  0  0  0  0  0  0  0
   -2.4239    4.2663   -0.4508 C   0  0  0  0  0  0  0  0  0  0  0  0
   -3.4968    5.0644    0.0046 C   0  0  0  0  0  0  0  0  0  0  0  0
   -4.0789    6.0209   -0.8413 C   0  0  0  0  0  0  0  0  0  0  0  0
   -3.6052    6.2019   -2.1369 C   0  0  0  0  0  0  0  0  0  0  0  0
   -2.5452    5.4277   -2.5979 C   0  0  0  0  0  0  0  0  0  0  0  0
   -3.9654    4.8873    1.3008 C   0  0  0  0  0  0  0  0  0  0  0  0
   -3.3742    3.9423    2.1408 C   0  0  0  0  0  0  0  0  0  0  0  0
   -2.2927    3.1219    1.7343 C   0  0  0  0  0  0  0  0  0  0  0  0
   -1.8285    3.2839    0.4032 C   0  0  0  0  0  0  0  0  0  0  0  0
   -1.6552    2.1741    2.6040 C   0  0  0  0  0  0  0  0  0  0  0  0
   -2.0194    2.0097    3.9692 C   0  0  0  0  0  0  0  0  0  0  0  0
   -1.3820    1.1090    4.8229 C   0  0  0  0  0  0  0  0  0  0  0  0
   -0.3432    0.3405    4.3422 C   0  0  0  0  0  0  0  0  0  0  0  0
    0.0368    0.4700    3.0090 C   0  0  0  0  0  0  0  0  0  0  0  0
   -0.6051    1.3593    2.1078 C   0  0  0  0  0  0  0  0  0  0  0  0
   -4.0558    0.2382   -4.6104 H   0  0  0  0  0  0  0  0  0  0  0  0
   -1.6215    0.7191   -4.6449 H   0  0  0  0  0  0  0  0  0  0  0  0
   -0.2220    0.0340   -2.7831 H   0  0  0  0  0  0  0  0  0  0  0  0
   -5.0360   -0.9379   -2.7410 H   0  0  0  0  0  0  0  0  0  0  0  0
   -2.5249   -4.7372    4.5378 H   0  0  0  0  0  0  0  0  0  0  0  0
   -4.9261   -5.2855    4.5633 H   0  0  0  0  0  0  0  0  0  0  0  0
   -6.4027   -4.4830    2.7627 H   0  0  0  0  0  0  0  0  0  0  0  0
   -6.7143   -3.2263    0.6685 H   0  0  0  0  0  0  0  0  0  0  0  0
   -5.8322   -1.9324   -1.1465 H   0  0  0  0  0  0  0  0  0  0  0  0
   -0.6001   -3.6466    3.4539 H   0  0  0  0  0  0  0  0  0  0  0  0
    0.3285   -2.3197    1.6691 H   0  0  0  0  0  0  0  0  0  0  0  0
    1.1452   -2.5299   -1.3607 H   0  0  0  0  0  0  0  0  0  0  0  0
    3.5042   -2.9972   -1.8491 H   0  0  0  0  0  0  0  0  0  0  0  0
    5.8598   -3.4619   -2.3435 H   0  0  0  0  0  0  0  0  0  0  0  0
    8.2343   -3.9274   -2.8458 H   0  0  0  0  0  0  0  0  0  0  0  0
   10.5990   -3.2398   -2.7802 H   0  0  0  0  0  0  0  0  0  0  0  0
   11.2389   -1.0627   -1.7792 H   0  0  0  0  0  0  0  0  0  0  0  0
    9.5145    0.4265   -0.8436 H   0  0  0  0  0  0  0  0  0  0  0  0
    7.1385    0.8924   -0.3381 H   0  0  0  0  0  0  0  0  0  0  0  0
    4.7824    1.3552    0.1562 H   0  0  0  0  0  0  0  0  0  0  0  0
    2.4267    1.8219    0.6486 H   0  0  0  0  0  0  0  0  0  0  0  0
    0.5112    2.1565   -1.8186 H   0  0  0  0  0  0  0  0  0  0  0  0
   -0.4985    3.8258   -3.2341 H   0  0  0  0  0  0  0  0  0  0  0  0
   -4.9078    6.6335   -0.4941 H   0  0  0  0  0  0  0  0  0  0  0  0
   -4.0606    6.9454   -2.7852 H   0  0  0  0  0  0  0  0  0  0  0  0
   -2.1838    5.5810   -3.6121 H   0  0  0  0  0  0  0  0  0  0  0  0
   -4.7921    5.4836    1.6802 H   0  0  0  0  0  0  0  0  0  0  0  0
   -3.7949    3.8625    3.1387 H   0  0  0  0  0  0  0  0  0  0  0  0
   -2.8195    2.5963    4.4103 H   0  0  0  0  0  0  0  0  0  0  0  0
   -1.7001    1.0199    5.8575 H   0  0  0  0  0  0  0  0  0  0  0  0
    0.1711   -0.3619    4.9907 H   0  0  0  0  0  0  0  0  0  0  0  0
    0.8685   -0.1469    2.6761 H   0  0  0  0  0  0  0  0  0  0  0  0
  1  2  4  0
  2  3  4  0
  3  4  4  0
  4  5  4  0
  5  6  4  0
  5  7  4  0
  7  8  4  0
  8  9  4  0
  9 10  4  0
 10 11  4  0
 11 12  4  0
 12 13  4  0
 13 14  4  0
 14 15  4  0
 15 16  4  0
 10 17  4  0
 17 18  4  0
 18 19  4  0
 19 20  4  0
 20 21  1  0
 21 22  4  0
 22 23  4  0
 23 24  4  0
 24 25  4  0
 25 26  4  0
 26 27  4  0
 27 28  4  0
 28 29  4  0
 29 30  4  0
 30 31  4  0
 31 32  4  0
 32 33  4  0
 33 34  4  0
 34 35  4  0
 35 36  4  0
 36 37  4  0
 37 38  4  0
 38 39  1  0
 39 40  4  0
 40 41  4  0
 41 42  4  0
 42 43  4  0
 43 44  4  0
 44 45  4  0
 45 46  4  0
 46 47  4  0
 47 48  4  0
 45 49  4  0
 49 50  4  0
 50 51  4  0
 51 52  4  0
 51 53  4  0
 53 54  4  0
 54 55  4  0
 55 56  4  0
 56 57  4  0
 57 58  4  0
  6  1  4  0
 16  7  4  0
 38 21  4  0
 58 39  4  0
 20  4  4  0
 36 23  4  0
 52 40  4  0
 58 53  4  0
 19  8  4  0
 34 25  4  0
 48 43  4  0
 14  9  4  0
 32 27  4  0
 52 44  4  0
  1 59  1  0
  2 60  1  0
  3 61  1  0
  6 62  1  0
 11 63  1  0
 12 64  1  0
 13 65  1  0
 15 66  1  0
 16 67  1  0
 17 68  1  0
 18 69  1  0
 22 70  1  0
 24 71  1  0
 26 72  1  0
 28 73  1  0
 29 74  1  0
 30 75  1  0
 31 76  1  0
 33 77  1  0
 35 78  1  0
 37 79  1  0
 41 80  1  0
 42 81  1  0
 46 82  1  0
 47 83  1  0
 48 84  1  0
 49 85  1  0
 50 86  1  0
 54 87  1  0
 55 88  1  0
 56 89  1  0
 57 90  1  0
M  END
