
     RDKit          3D

 90103  0  0  0  0  0  0  0  0999 V2000
   -6.4763   -7.2262   -1.6761 C   0  0  0  0  0  0  0  0  0  0  0  0
   -6.9531   -6.3923   -0.6673 C   0  0  0  0  0  0  0  0  0  0  0  0
   -6.3013   -5.1864   -0.3701 C   0  0  0  0  0  0  0  0  0  0  0  0
   -5.1476   -4.8126   -1.1015 C   0  0  0  0  0  0  0  0  0  0  0  0
   -4.6714   -5.6639   -2.1218 C   0  0  0  0  0  0  0  0  0  0  0  0
   -5.3423   -6.8643   -2.3995 C   0  0  0  0  0  0  0  0  0  0  0  0
   -3.5346   -5.2912   -2.8381 C   0  0  0  0  0  0  0  0  0  0  0  0
   -2.8747   -4.0922   -2.5524 C   0  0  0  0  0  0  0  0  0  0  0  0
   -3.3159   -3.2071   -1.5411 C   0  0  0  0  0  0  0  0  0  0  0  0
   -4.4734   -3.5925   -0.8136 C   0  0  0  0  0  0  0  0  0  0  0  0
   -4.9748   -2.7637    0.2132 C   0  0  0  0  0  0  0  0  0  0  0  0
   -4.3249   -1.5627    0.5103 C   0  0  0  0  0  0  0  0  0  0  0  0
   -3.1838   -1.1546   -0.1886 C   0  0  0  0  0  0  0  0  0  0  0  0
   -2.5648    0.0636    0.1494 C   0  0  0  0  0  0  0  0  0  0  0  0
   -1.4187    0.5237   -0.5133 C   0  0  0  0  0  0  0  0  0  0  0  0
   -0.7898    1.8031   -0.1351 C   0  0  0  0  0  0  0  0  0  0  0  0
   -1.5093    2.9958   -0.3581 C   0  0  0  0  0  0  0  0  0  0  0  0
   -0.9827    4.2569   -0.0354 C   0  0  0  0  0  0  0  0  0  0  0  0
   -1.7091    5.4377   -0.2647 C   0  0  0  0  0  0  0  0  0  0  0  0
   -1.1807    6.6984    0.0604 C   0  0  0  0  0  0  0  0  0  0  0  0
   -1.9072    7.8793   -0.1684 C   0  0  0  0  0  0  0  0  0  0  0  0
   -1.3787    9.1393    0.1574 C   0  0  0  0  0  0  0  0  0  0  0  0
   -2.1045   10.3202   -0.0707 C   0  0  0  0  0  0  0  0  0  0  0  0
   -1.5651   11.5647    0.2583 C   0  0  0  0  0  0  0  0  0  0  0  0
   -0.2944   11.6447    0.8193 C   0  0  0  0  0  0  0  0  0  0  0  0
    0.4391   10.4804    1.0523 C   0  0  0  0  0  0  0  0  0  0  0  0
   -0.0900    9.2205    0.7266 C   0  0  0  0  0  0  0  0  0  0  0  0
    0.6354    8.0394    0.9548 C   0  0  0  0  0  0  0  0  0  0  0  0
    0.1057    6.7794    0.6284 C   0  0  0  0  0  0  0  0  0  0  0  0
    0.8314    5.5979    0.8557 C   0  0  0  0  0  0  0  0  0  0  0  0
    0.3018    4.3380    0.5293 C   0  0  0  0  0  0  0  0  0  0  0  0
    1.0258    3.1560    0.7543 C   0  0  0  0  0  0  0  0  0  0  0  0
    0.5049    1.8851    0.4323 C   0  0  0  0  0  0  0  0  0  0  0  0
    1.3335    0.6969    0.7080 C   0  0  0  0  0  0  0  0  0  0  0  0
    0.9653   -0.2386    1.6744 C   0  0  0  0  0  0  0  0  0  0  0  0
    1.7572   -1.3675    1.9166 C   0  0  0  0  0  0  0  0  0  0  0  0
    2.9594   -1.6157    1.2099 C   0  0  0  0  0  0  0  0  0  0  0  0
    3.3288   -0.6567    0.2375 C   0  0  0  0  0  0  0  0  0  0  0  0
    2.5240    0.4739    0.0031 C   0  0  0  0  0  0  0  0  0  0  0  0
    4.5023   -0.8291   -0.5037 C   0  0  0  0  0  0  0  0  0  0  0  0
    5.3341   -1.9350   -0.3101 C   0  0  0  0  0  0  0  0  0  0  0  0
    6.5050   -2.0823   -1.0662 C   0  0  0  0  0  0  0  0  0  0  0  0
    7.3426   -3.1815   -0.8818 C   0  0  0  0  0  0  0  0  0  0  0  0
    7.0288   -4.1615    0.0641 C   0  0  0  0  0  0  0  0  0  0  0  0
    5.8490   -4.0274    0.8359 C   0  0  0  0  0  0  0  0  0  0  0  0
    5.5327   -5.0178    1.7905 C   0  0  0  0  0  0  0  0  0  0  0  0
    6.3854   -6.1184    1.9640 C   0  0  0  0  0  0  0  0  0  0  0  0
    7.5445   -6.2444    1.2018 C   0  0  0  0  0  0  0  0  0  0  0  0
    7.8643   -5.2716    0.2574 C   0  0  0  0  0  0  0  0  0  0  0  0
    4.3694   -4.8807    2.5471 C   0  0  0  0  0  0  0  0  0  0  0  0
    3.5276   -3.7792    2.3652 C   0  0  0  0  0  0  0  0  0  0  0  0
    3.8038   -2.7620    1.4217 C   0  0  0  0  0  0  0  0  0  0  0  0
    4.9895   -2.9075    0.6534 C   0  0  0  0  0  0  0  0  0  0  0  0
   -0.9029   -0.2641   -1.5418 C   0  0  0  0  0  0  0  0  0  0  0  0
   -1.5069   -1.4794   -1.8850 C   0  0  0  0  0  0  0  0  0  0  0  0
   -2.6616   -1.9652   -1.2239 C   0  0  0  0  0  0  0  0  0  0  0  0
   -6.1180   -3.1478    0.9278 C   0  0  0  0  0  0  0  0  0  0  0  0
   -6.7740   -4.3442    0.6402 C   0  0  0  0  0  0  0  0  0  0  0  0
   -6.9888   -8.1583   -1.8989 H   0  0  0  0  0  0  0  0  0  0  0  0
   -7.8400   -6.6917   -0.1131 H   0  0  0  0  0  0  0  0  0  0  0  0
   -4.9852   -7.5279   -3.1840 H   0  0  0  0  0  0  0  0  0  0  0  0
   -3.1452   -5.9287   -3.6288 H   0  0  0  0  0  0  0  0  0  0  0  0
   -1.9947   -3.8655   -3.1477 H   0  0  0  0  0  0  0  0  0  0  0  0
   -4.7177   -0.9299    1.3049 H   0  0  0  0  0  0  0  0  0  0  0  0
   -2.9777    0.6683    0.9564 H   0  0  0  0  0  0  0  0  0  0  0  0
   -2.5014    2.9328   -0.8052 H   0  0  0  0  0  0  0  0  0  0  0  0
   -2.7033    5.3744   -0.7041 H   0  0  0  0  0  0  0  0  0  0  0  0
   -2.9013    7.8174   -0.6076 H   0  0  0  0  0  0  0  0  0  0  0  0
   -3.0994   10.2788   -0.5083 H   0  0  0  0  0  0  0  0  0  0  0  0
   -2.1380   12.4703    0.0763 H   0  0  0  0  0  0  0  0  0  0  0  0
    0.1275   12.6128    1.0763 H   0  0  0  0  0  0  0  0  0  0  0  0
    1.4306   10.5641    1.4917 H   0  0  0  0  0  0  0  0  0  0  0  0
    1.6293    8.1023    1.3940 H   0  0  0  0  0  0  0  0  0  0  0  0
    1.8261    5.6601    1.2941 H   0  0  0  0  0  0  0  0  0  0  0  0
    2.0183    3.2179    1.2004 H   0  0  0  0  0  0  0  0  0  0  0  0
    0.0499   -0.1044    2.2470 H   0  0  0  0  0  0  0  0  0  0  0  0
    1.4034   -2.0571    2.6776 H   0  0  0  0  0  0  0  0  0  0  0  0
    2.8222    1.1962   -0.7564 H   0  0  0  0  0  0  0  0  0  0  0  0
    4.7758   -0.0844   -1.2499 H   0  0  0  0  0  0  0  0  0  0  0  0
    6.7780   -1.3379   -1.8113 H   0  0  0  0  0  0  0  0  0  0  0  0
    8.2431   -3.2639   -1.4861 H   0  0  0  0  0  0  0  0  0  0  0  0
    6.1512   -6.8875    2.6968 H   0  0  0  0  0  0  0  0  0  0  0  0
    8.1984   -7.1006    1.3438 H   0  0  0  0  0  0  0  0  0  0  0  0
    8.7733   -5.3866   -0.3288 H   0  0  0  0  0  0  0  0  0  0  0  0
    4.1007   -5.6291    3.2894 H   0  0  0  0  0  0  0  0  0  0  0  0
    2.6383   -3.7367    2.9876 H   0  0  0  0  0  0  0  0  0  0  0  0
   -0.0172    0.0561   -2.0867 H   0  0  0  0  0  0  0  0  0  0  0  0
   -1.0448   -2.0429   -2.6904 H   0  0  0  0  0  0  0  0  0  0  0  0
   -6.5117   -2.5150    1.7206 H   0  0  0  0  0  0  0  0  0  0  0  0
   -7.6584   -4.6110    1.2143 H   0  0  0  0  0  0  0  0  0  0  0  0
  1  2  4  0
  2  3  4  0
  3  4  4  0
  4  5  4  0
  5  6  4  0
  5  7  4  0
  7  8  4  0
  8  9  4  0
  9 10  4  0
 10 11  4  0
 11 12  4  0
 12 13  4  0
 13 14  4  0
 14 15  4  0
 15 16  1  0
 16 17  4  0
 17 18  4  0
 18 19  4  0
 19 20  4  0
 20 21  4  0
 21 22  4  0
 22 23  4  0
 23 24  4  0
 24 25  4  0
 25 26  4  0
 26 27  4  0
 27 28  4  0
 28 29  4  0
 29 30  4  0
 30 31  4  0
 31 32  4  0
 32 33  4  0
 33 34  1  0
 34 35  4  0
 35 36  4  0
 36 37  4  0
 37 38  4  0
 38 39  4  0
 38 40  4  0
 40 41  4  0
 41 42  4  0
 42 43  4  0
 43 44  4  0
 44 45  4  0
 45 46  4  0
 46 47  4  0
 47 48  4  0
 48 49  4  0
 46 50  4  0
 50 51  4  0
 51 52  4  0
 52 53  4  0
 15 54  4  0
 54 55  4  0
 55 56  4  0
 11 57  4  0
 57 58  4  0
  6  1  4  0
 56  9  4  0
 58  3  4  0
 10  4  4  0
 56 13  4  0
 33 16  4  0
 39 34  4  0
 53 41  4  0
 31 18  4  0
 52 37  4  0
 29 20  4  0
 49 44  4  0
 27 22  4  0
 53 45  4  0
  1 59  1  0
  2 60  1  0
  6 61  1  0
  7 62  1  0
  8 63  1  0
 12 64  1  0
 14 65  1  0
 17 66  1  0
 19 67  1  0
 21 68  1  0
 23 69  1  0
 24 70  1  0
 25 71  1  0
 26 72  1  0
 28 73  1  0
 30 74  1  0
 32 75  1  0
 35 76  1  0
 36 77  1  0
 39 78  1  0
 40 79  1  0
 42 80  1  0
 43 81  1  0
 47 82  1  0
 48 83  1  0
 49 84  1  0
 50 85  1  0
 51 86  1  0
 54 87  1  0
 55 88  1  0
 57 89  1  0
 58 90  1  0
M  END
