
     RDKit          3D

 90103  0  0  0  0  0  0  0  0999 V2000
    4.0254   -5.0643    4.3891 C   0  0  0  0  0  0  0  0  0  0  0  0
    3.2091   -3.9498    4.5678 C   0  0  0  0  0  0  0  0  0  0  0  0
    2.8637   -3.1353    3.4794 C   0  0  0  0  0  0  0  0  0  0  0  0
    3.3484   -3.4473    2.1858 C   0  0  0  0  0  0  0  0  0  0  0  0
    4.1746   -4.5779    2.0145 C   0  0  0  0  0  0  0  0  0  0  0  0
    4.5055   -5.3768    3.1195 C   0  0  0  0  0  0  0  0  0  0  0  0
    4.6484   -4.8793    0.7391 C   0  0  0  0  0  0  0  0  0  0  0  0
    4.3112   -4.0740   -0.3537 C   0  0  0  0  0  0  0  0  0  0  0  0
    3.4853   -2.9294   -0.2335 C   0  0  0  0  0  0  0  0  0  0  0  0
    3.0079   -2.6318    1.0687 C   0  0  0  0  0  0  0  0  0  0  0  0
    2.1826   -1.5105    1.2760 C   0  0  0  0  0  0  0  0  0  0  0  0
    1.8374   -0.6993    0.1920 C   0  0  0  0  0  0  0  0  0  0  0  0
    2.2691   -0.9585   -1.1230 C   0  0  0  0  0  0  0  0  0  0  0  0
    1.8777   -0.1268   -2.2168 C   0  0  0  0  0  0  0  0  0  0  0  0
    0.9684    1.0318   -2.0617 C   0  0  0  0  0  0  0  0  0  0  0  0
    1.5306    2.2999   -1.8138 C   0  0  0  0  0  0  0  0  0  0  0  0
    0.7345    3.4465   -1.6655 C   0  0  0  0  0  0  0  0  0  0  0  0
    1.3023    4.7054   -1.4076 C   0  0  0  0  0  0  0  0  0  0  0  0
    0.5048    5.8525   -1.2583 C   0  0  0  0  0  0  0  0  0  0  0  0
    1.0716    7.1118   -0.9977 C   0  0  0  0  0  0  0  0  0  0  0  0
    0.2727    8.2572   -0.8463 C   0  0  0  0  0  0  0  0  0  0  0  0
    0.8377    9.5165   -0.5846 C   0  0  0  0  0  0  0  0  0  0  0  0
    0.0295   10.6446   -0.4357 C   0  0  0  0  0  0  0  0  0  0  0  0
   -1.3525   10.5284   -0.5467 C   0  0  0  0  0  0  0  0  0  0  0  0
   -1.9288    9.2844   -0.8072 C   0  0  0  0  0  0  0  0  0  0  0  0
   -1.1290    8.1400   -0.9593 C   0  0  0  0  0  0  0  0  0  0  0  0
   -1.6943    6.8813   -1.2211 C   0  0  0  0  0  0  0  0  0  0  0  0
   -0.8944    5.7364   -1.3717 C   0  0  0  0  0  0  0  0  0  0  0  0
   -1.4613    4.4777   -1.6315 C   0  0  0  0  0  0  0  0  0  0  0  0
   -0.6633    3.3313   -1.7777 C   0  0  0  0  0  0  0  0  0  0  0  0
   -1.2301    2.0719   -2.0302 C   0  0  0  0  0  0  0  0  0  0  0  0
   -0.4389    0.9137   -2.1655 C   0  0  0  0  0  0  0  0  0  0  0  0
   -1.1124   -0.3826   -2.4154 C   0  0  0  0  0  0  0  0  0  0  0  0
   -1.7220   -1.1511   -1.3732 C   0  0  0  0  0  0  0  0  0  0  0  0
   -1.7411   -0.7056   -0.0360 C   0  0  0  0  0  0  0  0  0  0  0  0
   -2.3169   -1.4433    1.0022 C   0  0  0  0  0  0  0  0  0  0  0  0
   -2.3018   -0.9512    2.3152 C   0  0  0  0  0  0  0  0  0  0  0  0
   -2.8727   -1.6777    3.3591 C   0  0  0  0  0  0  0  0  0  0  0  0
   -3.4718   -2.9158    3.1138 C   0  0  0  0  0  0  0  0  0  0  0  0
   -3.4948   -3.4247    1.7924 C   0  0  0  0  0  0  0  0  0  0  0  0
   -4.1019   -4.6743    1.5470 C   0  0  0  0  0  0  0  0  0  0  0  0
   -4.6714   -5.3963    2.6068 C   0  0  0  0  0  0  0  0  0  0  0  0
   -4.6446   -4.8902    3.9041 C   0  0  0  0  0  0  0  0  0  0  0  0
   -4.0483   -3.6568    4.1560 C   0  0  0  0  0  0  0  0  0  0  0  0
   -4.1226   -5.1688    0.2445 C   0  0  0  0  0  0  0  0  0  0  0  0
   -3.5511   -4.4388   -0.8028 C   0  0  0  0  0  0  0  0  0  0  0  0
   -2.9298   -3.1806   -0.6081 C   0  0  0  0  0  0  0  0  0  0  0  0
   -2.9137   -2.6866    0.7215 C   0  0  0  0  0  0  0  0  0  0  0  0
   -2.3314   -2.4023   -1.6664 C   0  0  0  0  0  0  0  0  0  0  0  0
   -2.3163   -2.8246   -3.0188 C   0  0  0  0  0  0  0  0  0  0  0  0
   -1.7432   -2.0666   -4.0377 C   0  0  0  0  0  0  0  0  0  0  0  0
   -1.1491   -0.8534   -3.7370 C   0  0  0  0  0  0  0  0  0  0  0  0
    2.3669   -0.3971   -3.5045 C   0  0  0  0  0  0  0  0  0  0  0  0
    3.2024   -1.4771   -3.7298 C   0  0  0  0  0  0  0  0  0  0  0  0
    3.5622   -2.3029   -2.6667 C   0  0  0  0  0  0  0  0  0  0  0  0
    3.1163   -2.0798   -1.3401 C   0  0  0  0  0  0  0  0  0  0  0  0
    1.7098   -1.2133    2.5619 C   0  0  0  0  0  0  0  0  0  0  0  0
    2.0454   -2.0158    3.6510 C   0  0  0  0  0  0  0  0  0  0  0  0
    4.2872   -5.6892    5.2388 H   0  0  0  0  0  0  0  0  0  0  0  0
    2.8427   -3.7205    5.5658 H   0  0  0  0  0  0  0  0  0  0  0  0
    5.1416   -6.2507    2.9977 H   0  0  0  0  0  0  0  0  0  0  0  0
    5.2854   -5.7456    0.5757 H   0  0  0  0  0  0  0  0  0  0  0  0
    4.7156   -4.3735   -1.3161 H   0  0  0  0  0  0  0  0  0  0  0  0
    1.2050    0.1647    0.3855 H   0  0  0  0  0  0  0  0  0  0  0  0
    2.6141    2.3846   -1.7320 H   0  0  0  0  0  0  0  0  0  0  0  0
    2.3839    4.7934   -1.3193 H   0  0  0  0  0  0  0  0  0  0  0  0
    2.1528    7.2027   -0.9104 H   0  0  0  0  0  0  0  0  0  0  0  0
    1.9160    9.6280   -0.4943 H   0  0  0  0  0  0  0  0  0  0  0  0
    0.4802   11.6126   -0.2332 H   0  0  0  0  0  0  0  0  0  0  0  0
   -1.9836   11.4057   -0.4312 H   0  0  0  0  0  0  0  0  0  0  0  0
   -3.0110    9.2145   -0.8909 H   0  0  0  0  0  0  0  0  0  0  0  0
   -2.7755    6.7912   -1.3091 H   0  0  0  0  0  0  0  0  0  0  0  0
   -2.5429    4.3883   -1.7190 H   0  0  0  0  0  0  0  0  0  0  0  0
   -2.3125    1.9784   -2.1173 H   0  0  0  0  0  0  0  0  0  0  0  0
   -1.2893    0.2524    0.2144 H   0  0  0  0  0  0  0  0  0  0  0  0
   -1.8445    0.0104    2.5383 H   0  0  0  0  0  0  0  0  0  0  0  0
   -2.8441   -1.2655    4.3652 H   0  0  0  0  0  0  0  0  0  0  0  0
   -5.1413   -6.3610    2.4280 H   0  0  0  0  0  0  0  0  0  0  0  0
   -5.0881   -5.4569    4.7185 H   0  0  0  0  0  0  0  0  0  0  0  0
   -4.0363   -3.2765    5.1749 H   0  0  0  0  0  0  0  0  0  0  0  0
   -4.5827   -6.1296    0.0245 H   0  0  0  0  0  0  0  0  0  0  0  0
   -3.6045   -4.8897   -1.7894 H   0  0  0  0  0  0  0  0  0  0  0  0
   -2.7604   -3.7705   -3.3143 H   0  0  0  0  0  0  0  0  0  0  0  0
   -1.7574   -2.4302   -5.0612 H   0  0  0  0  0  0  0  0  0  0  0  0
   -0.7003   -0.2700   -4.5378 H   0  0  0  0  0  0  0  0  0  0  0  0
    2.0827    0.2384   -4.3405 H   0  0  0  0  0  0  0  0  0  0  0  0
    3.5708   -1.6849   -4.7304 H   0  0  0  0  0  0  0  0  0  0  0  0
    4.2138   -3.1387   -2.9046 H   0  0  0  0  0  0  0  0  0  0  0  0
    1.0711   -0.3487    2.7284 H   0  0  0  0  0  0  0  0  0  0  0  0
    1.6595   -1.7564    4.6340 H   0  0  0  0  0  0  0  0  0  0  0  0
  1  2  4  0
  2  3  4  0
  3  4  4  0
  4  5  4  0
  5  6  4  0
  5  7  4  0
  7  8  4  0
  8  9  4  0
  9 10  4  0
 10 11  4  0
 11 12  4  0
 12 13  4  0
 13 14  4  0
 14 15  1  0
 15 16  4  0
 16 17  4  0
 17 18  4  0
 18 19  4  0
 19 20  4  0
 20 21  4  0
 21 22  4  0
 22 23  4  0
 23 24  4  0
 24 25  4  0
 25 26  4  0
 26 27  4  0
 27 28  4  0
 28 29  4  0
 29 30  4  0
 30 31  4  0
 31 32  4  0
 32 33  1  0
 33 34  4  0
 34 35  4  0
 35 36  4  0
 36 37  4  0
 37 38  4  0
 38 39  4  0
 39 40  4  0
 40 41  4  0
 41 42  4  0
 42 43  4  0
 43 44  4  0
 41 45  4  0
 45 46  4  0
 46 47  4  0
 47 48  4  0
 47 49  4  0
 49 50  4  0
 50 51  4  0
 51 52  4  0
 14 53  4  0
 53 54  4  0
 54 55  4  0
 55 56  4  0
 11 57  4  0
 57 58  4  0
  6  1  4  0
 56  9  4  0
 58  3  4  0
 10  4  4  0
 56 13  4  0
 32 15  4  0
 52 33  4  0
 30 17  4  0
 49 34  4  0
 28 19  4  0
 48 36  4  0
 26 21  4  0
 44 39  4  0
 48 40  4  0
  1 59  1  0
  2 60  1  0
  6 61  1  0
  7 62  1  0
  8 63  1  0
 12 64  1  0
 16 65  1  0
 18 66  1  0
 20 67  1  0
 22 68  1  0
 23 69  1  0
 24 70  1  0
 25 71  1  0
 27 72  1  0
 29 73  1  0
 31 74  1  0
 35 75  1  0
 37 76  1  0
 38 77  1  0
 42 78  1  0
 43 79  1  0
 44 80  1  0
 45 81  1  0
 46 82  1  0
 50 83  1  0
 51 84  1  0
 52 85  1  0
 53 86  1  0
 54 87  1  0
 55 88  1  0
 57 89  1  0
 58 90  1  0
M  END
