
     RDKit          3D

 62 69  0  0  0  0  0  0  0  0999 V2000
   -4.1350    3.4222    3.1287 C   0  0  0  0  0  0  0  0  0  0  0  0
   -4.6522    3.5368    1.8393 C   0  0  0  0  0  0  0  0  0  0  0  0
   -4.0221    2.9164    0.7476 C   0  0  0  0  0  0  0  0  0  0  0  0
   -4.5613    3.0450   -0.5407 C   0  0  0  0  0  0  0  0  0  0  0  0
   -3.9523    2.4381   -1.6347 C   0  0  0  0  0  0  0  0  0  0  0  0
   -2.7931    1.6919   -1.4536 C   0  0  0  0  0  0  0  0  0  0  0  0
   -2.2239    1.5335   -0.1765 C   0  0  0  0  0  0  0  0  0  0  0  0
   -0.9932    0.7240   -0.0539 C   0  0  0  0  0  0  0  0  0  0  0  0
    0.2507    1.3846   -0.0269 C   0  0  0  0  0  0  0  0  0  0  0  0
    1.4596    0.6811    0.0905 C   0  0  0  0  0  0  0  0  0  0  0  0
    2.6958    1.3470    0.1145 C   0  0  0  0  0  0  0  0  0  0  0  0
    3.9053    0.6417    0.2302 C   0  0  0  0  0  0  0  0  0  0  0  0
    5.1425    1.3073    0.2510 C   0  0  0  0  0  0  0  0  0  0  0  0
    6.3514    0.6014    0.3646 C   0  0  0  0  0  0  0  0  0  0  0  0
    7.5889    1.2655    0.3839 C   0  0  0  0  0  0  0  0  0  0  0  0
    8.7816    0.5496    0.4968 C   0  0  0  0  0  0  0  0  0  0  0  0
    8.7525   -0.8382    0.5919 C   0  0  0  0  0  0  0  0  0  0  0  0
    7.5307   -1.5125    0.5741 C   0  0  0  0  0  0  0  0  0  0  0  0
    6.3221   -0.8062    0.4609 C   0  0  0  0  0  0  0  0  0  0  0  0
    5.0849   -1.4703    0.4410 C   0  0  0  0  0  0  0  0  0  0  0  0
    3.8765   -0.7634    0.3262 C   0  0  0  0  0  0  0  0  0  0  0  0
    2.6394   -1.4283    0.3038 C   0  0  0  0  0  0  0  0  0  0  0  0
    1.4312   -0.7223    0.1857 C   0  0  0  0  0  0  0  0  0  0  0  0
    0.1954   -1.3867    0.1560 C   0  0  0  0  0  0  0  0  0  0  0  0
   -1.0206   -0.6873    0.0282 C   0  0  0  0  0  0  0  0  0  0  0  0
   -2.2807   -1.4587   -0.0181 C   0  0  0  0  0  0  0  0  0  0  0  0
   -2.7559   -2.0669   -1.2176 C   0  0  0  0  0  0  0  0  0  0  0  0
   -2.0779   -1.9867   -2.4579 C   0  0  0  0  0  0  0  0  0  0  0  0
   -2.5796   -2.5926   -3.6116 C   0  0  0  0  0  0  0  0  0  0  0  0
   -3.7748   -3.2962   -3.5584 C   0  0  0  0  0  0  0  0  0  0  0  0
   -4.4670   -3.3942   -2.3524 C   0  0  0  0  0  0  0  0  0  0  0  0
   -3.9751   -2.7904   -1.1830 C   0  0  0  0  0  0  0  0  0  0  0  0
   -4.6893   -2.9004    0.0190 C   0  0  0  0  0  0  0  0  0  0  0  0
   -4.2187   -2.3088    1.1872 C   0  0  0  0  0  0  0  0  0  0  0  0
   -3.0241   -1.5971    1.1684 C   0  0  0  0  0  0  0  0  0  0  0  0
   -2.8407    2.1576    0.9477 C   0  0  0  0  0  0  0  0  0  0  0  0
   -2.3420    2.0608    2.2692 C   0  0  0  0  0  0  0  0  0  0  0  0
   -2.9794    2.6841    3.3441 C   0  0  0  0  0  0  0  0  0  0  0  0
   -4.6359    3.9086    3.9612 H   0  0  0  0  0  0  0  0  0  0  0  0
   -5.5597    4.1181    1.6910 H   0  0  0  0  0  0  0  0  0  0  0  0
   -5.4692    3.6221   -0.7024 H   0  0  0  0  0  0  0  0  0  0  0  0
   -4.3827    2.5417   -2.6269 H   0  0  0  0  0  0  0  0  0  0  0  0
   -2.3300    1.2188   -2.3173 H   0  0  0  0  0  0  0  0  0  0  0  0
    0.2665    2.4719   -0.0981 H   0  0  0  0  0  0  0  0  0  0  0  0
    2.7166    2.4328    0.0397 H   0  0  0  0  0  0  0  0  0  0  0  0
    5.1652    2.3930    0.1773 H   0  0  0  0  0  0  0  0  0  0  0  0
    7.6328    2.3499    0.3107 H   0  0  0  0  0  0  0  0  0  0  0  0
    9.7320    1.0765    0.5104 H   0  0  0  0  0  0  0  0  0  0  0  0
    9.6802   -1.3975    0.6799 H   0  0  0  0  0  0  0  0  0  0  0  0
    7.5289   -2.5976    0.6498 H   0  0  0  0  0  0  0  0  0  0  0  0
    5.0620   -2.5561    0.5149 H   0  0  0  0  0  0  0  0  0  0  0  0
    2.6159   -2.5141    0.3776 H   0  0  0  0  0  0  0  0  0  0  0  0
    0.1681   -2.4740    0.2247 H   0  0  0  0  0  0  0  0  0  0  0  0
   -1.1402   -1.4405   -2.5385 H   0  0  0  0  0  0  0  0  0  0  0  0
   -2.0339   -2.5109   -4.5478 H   0  0  0  0  0  0  0  0  0  0  0  0
   -4.1708   -3.7684   -4.4531 H   0  0  0  0  0  0  0  0  0  0  0  0
   -5.4026   -3.9490   -2.3317 H   0  0  0  0  0  0  0  0  0  0  0  0
   -5.6274   -3.4504    0.0536 H   0  0  0  0  0  0  0  0  0  0  0  0
   -4.7843   -2.3975    2.1107 H   0  0  0  0  0  0  0  0  0  0  0  0
   -2.6703   -1.1359    2.0884 H   0  0  0  0  0  0  0  0  0  0  0  0
   -1.4405    1.4878    2.4765 H   0  0  0  0  0  0  0  0  0  0  0  0
   -2.5702    2.5895    4.3464 H   0  0  0  0  0  0  0  0  0  0  0  0
  1  2  4  0
  2  3  4  0
  3  4  4  0
  4  5  4  0
  5  6  4  0
  6  7  4  0
  7  8  1  0
  8  9  4  0
  9 10  4  0
 10 11  4  0
 11 12  4  0
 12 13  4  0
 13 14  4  0
 14 15  4  0
 15 16  4  0
 16 17  4  0
 17 18  4  0
 18 19  4  0
 19 20  4  0
 20 21  4  0
 21 22  4  0
 22 23  4  0
 23 24  4  0
 24 25  4  0
 25 26  1  0
 26 27  4  0
 27 28  4  0
 28 29  4  0
 29 30  4  0
 30 31  4  0
 31 32  4  0
 32 33  4  0
 33 34  4  0
 34 35  4  0
  7 36  4  0
 36 37  4  0
 37 38  4  0
 38  1  4  0
 36  3  4  0
 25  8  4  0
 35 26  4  0
 23 10  4  0
 32 27  4  0
 21 12  4  0
 19 14  4  0
  1 39  1  0
  2 40  1  0
  4 41  1  0
  5 42  1  0
  6 43  1  0
  9 44  1  0
 11 45  1  0
 13 46  1  0
 15 47  1  0
 16 48  1  0
 17 49  1  0
 18 50  1  0
 20 51  1  0
 22 52  1  0
 24 53  1  0
 28 54  1  0
 29 55  1  0
 30 56  1  0
 31 57  1  0
 33 58  1  0
 34 59  1  0
 35 60  1  0
 37 61  1  0
 38 62  1  0
M  END
