
     RDKit          3D

 74 83  0  0  0  0  0  0  0  0999 V2000
   -5.0535   -5.4244    1.8329 C   0  0  0  0  0  0  0  0  0  0  0  0
   -5.4374   -4.5700    0.7982 C   0  0  0  0  0  0  0  0  0  0  0  0
   -4.5574   -3.5880    0.3133 C   0  0  0  0  0  0  0  0  0  0  0  0
   -4.9255   -2.7178   -0.7241 C   0  0  0  0  0  0  0  0  0  0  0  0
   -4.0489   -1.7297   -1.2050 C   0  0  0  0  0  0  0  0  0  0  0  0
   -4.4532   -0.8726   -2.2396 C   0  0  0  0  0  0  0  0  0  0  0  0
   -3.6017    0.1148   -2.7257 C   0  0  0  0  0  0  0  0  0  0  0  0
   -2.3312    0.2602   -2.1804 C   0  0  0  0  0  0  0  0  0  0  0  0
   -1.8912   -0.5754   -1.1380 C   0  0  0  0  0  0  0  0  0  0  0  0
   -0.5354   -0.3602   -0.5903 C   0  0  0  0  0  0  0  0  0  0  0  0
    0.5309   -1.1242   -1.1027 C   0  0  0  0  0  0  0  0  0  0  0  0
    1.8396   -0.9871   -0.6142 C   0  0  0  0  0  0  0  0  0  0  0  0
    2.8967   -1.7576   -1.1255 C   0  0  0  0  0  0  0  0  0  0  0  0
    4.2057   -1.6229   -0.6337 C   0  0  0  0  0  0  0  0  0  0  0  0
    5.2632   -2.3940   -1.1451 C   0  0  0  0  0  0  0  0  0  0  0  0
    6.5718   -2.2602   -0.6528 C   0  0  0  0  0  0  0  0  0  0  0  0
    7.6296   -3.0309   -1.1630 C   0  0  0  0  0  0  0  0  0  0  0  0
    8.9244   -2.8863   -0.6626 C   0  0  0  0  0  0  0  0  0  0  0  0
    9.1783   -1.9702    0.3533 C   0  0  0  0  0  0  0  0  0  0  0  0
    8.1379   -1.1968    0.8704 C   0  0  0  0  0  0  0  0  0  0  0  0
    6.8295   -1.3308    0.3775 C   0  0  0  0  0  0  0  0  0  0  0  0
    5.7716   -0.5601    0.8875 C   0  0  0  0  0  0  0  0  0  0  0  0
    4.4629   -0.6952    0.3945 C   0  0  0  0  0  0  0  0  0  0  0  0
    3.4047    0.0750    0.9052 C   0  0  0  0  0  0  0  0  0  0  0  0
    2.0964   -0.0599    0.4127 C   0  0  0  0  0  0  0  0  0  0  0  0
    1.0389    0.7102    0.9220 C   0  0  0  0  0  0  0  0  0  0  0  0
   -0.2753    0.5803    0.4331 C   0  0  0  0  0  0  0  0  0  0  0  0
   -1.3375    1.4300    1.0117 C   0  0  0  0  0  0  0  0  0  0  0  0
   -1.5951    2.7521    0.5427 C   0  0  0  0  0  0  0  0  0  0  0  0
   -0.8600    3.3700   -0.4982 C   0  0  0  0  0  0  0  0  0  0  0  0
   -1.1392    4.6715   -0.9493 C   0  0  0  0  0  0  0  0  0  0  0  0
   -0.3984    5.2658   -1.9850 C   0  0  0  0  0  0  0  0  0  0  0  0
   -0.6908    6.5590   -2.4216 C   0  0  0  0  0  0  0  0  0  0  0  0
   -1.7271    7.2735   -1.8289 C   0  0  0  0  0  0  0  0  0  0  0  0
   -2.4705    6.6957   -0.7986 C   0  0  0  0  0  0  0  0  0  0  0  0
   -2.1866    5.3952   -0.3487 C   0  0  0  0  0  0  0  0  0  0  0  0
   -2.9227    4.7985    0.6861 C   0  0  0  0  0  0  0  0  0  0  0  0
   -2.6423    3.4970    1.1366 C   0  0  0  0  0  0  0  0  0  0  0  0
   -3.4015    2.9330    2.1729 C   0  0  0  0  0  0  0  0  0  0  0  0
   -3.1407    1.6462    2.6331 C   0  0  0  0  0  0  0  0  0  0  0  0
   -2.1152    0.9037    2.0595 C   0  0  0  0  0  0  0  0  0  0  0  0
   -2.7571   -1.5947   -0.6423 C   0  0  0  0  0  0  0  0  0  0  0  0
   -2.3987   -2.4861    0.3978 C   0  0  0  0  0  0  0  0  0  0  0  0
   -3.2751   -3.4713    0.8819 C   0  0  0  0  0  0  0  0  0  0  0  0
   -2.9012   -4.3391    1.9215 C   0  0  0  0  0  0  0  0  0  0  0  0
   -3.7858   -5.3091    2.3942 C   0  0  0  0  0  0  0  0  0  0  0  0
   -5.7451   -6.1781    2.1997 H   0  0  0  0  0  0  0  0  0  0  0  0
   -6.4325   -4.6748    0.3719 H   0  0  0  0  0  0  0  0  0  0  0  0
   -5.9173   -2.8092   -1.1636 H   0  0  0  0  0  0  0  0  0  0  0  0
   -5.4454   -0.9656   -2.6761 H   0  0  0  0  0  0  0  0  0  0  0  0
   -3.9299    0.7758   -3.5232 H   0  0  0  0  0  0  0  0  0  0  0  0
   -1.6792    1.0425   -2.5637 H   0  0  0  0  0  0  0  0  0  0  0  0
    0.3249   -1.8438   -1.8945 H   0  0  0  0  0  0  0  0  0  0  0  0
    2.6968   -2.4752   -1.9196 H   0  0  0  0  0  0  0  0  0  0  0  0
    5.0639   -3.1113   -1.9393 H   0  0  0  0  0  0  0  0  0  0  0  0
    7.4522   -3.7522   -1.9577 H   0  0  0  0  0  0  0  0  0  0  0  0
    9.7333   -3.4893   -1.0668 H   0  0  0  0  0  0  0  0  0  0  0  0
   10.1860   -1.8561    0.7443 H   0  0  0  0  0  0  0  0  0  0  0  0
    8.3575   -0.4862    1.6642 H   0  0  0  0  0  0  0  0  0  0  0  0
    5.9707    0.1570    1.6818 H   0  0  0  0  0  0  0  0  0  0  0  0
    3.6025    0.7920    1.7002 H   0  0  0  0  0  0  0  0  0  0  0  0
    1.2323    1.4318    1.7152 H   0  0  0  0  0  0  0  0  0  0  0  0
   -0.0486    2.8231   -0.9755 H   0  0  0  0  0  0  0  0  0  0  0  0
    0.4156    4.7220   -2.4596 H   0  0  0  0  0  0  0  0  0  0  0  0
   -0.1094    7.0065   -3.2234 H   0  0  0  0  0  0  0  0  0  0  0  0
   -1.9584    8.2801   -2.1671 H   0  0  0  0  0  0  0  0  0  0  0  0
   -3.2767    7.2694   -0.3470 H   0  0  0  0  0  0  0  0  0  0  0  0
   -3.7324    5.3594    1.1498 H   0  0  0  0  0  0  0  0  0  0  0  0
   -4.2120    3.4952    2.6318 H   0  0  0  0  0  0  0  0  0  0  0  0
   -3.7401    1.2186    3.4324 H   0  0  0  0  0  0  0  0  0  0  0  0
   -1.9263   -0.1039    2.4244 H   0  0  0  0  0  0  0  0  0  0  0  0
   -1.4116   -2.4086    0.8505 H   0  0  0  0  0  0  0  0  0  0  0  0
   -1.9139   -4.2637    2.3720 H   0  0  0  0  0  0  0  0  0  0  0  0
   -3.4835   -5.9725    3.2002 H   0  0  0  0  0  0  0  0  0  0  0  0
  1  2  4  0
  2  3  4  0
  3  4  4  0
  4  5  4  0
  5  6  4  0
  6  7  4  0
  7  8  4  0
  8  9  4  0
  9 10  1  0
 10 11  4  0
 11 12  4  0
 12 13  4  0
 13 14  4  0
 14 15  4  0
 15 16  4  0
 16 17  4  0
 17 18  4  0
 18 19  4  0
 19 20  4  0
 20 21  4  0
 21 22  4  0
 22 23  4  0
 23 24  4  0
 24 25  4  0
 25 26  4  0
 26 27  4  0
 27 28  1  0
 28 29  4  0
 29 30  4  0
 30 31  4  0
 31 32  4  0
 32 33  4  0
 33 34  4  0
 34 35  4  0
 35 36  4  0
 36 37  4  0
 37 38  4  0
 38 39  4  0
 39 40  4  0
 40 41  4  0
  9 42  4  0
 42 43  4  0
 43 44  4  0
 44 45  4  0
 45 46  4  0
 46  1  4  0
 44  3  4  0
 42  5  4  0
 27 10  4  0
 41 28  4  0
 25 12  4  0
 38 29  4  0
 23 14  4  0
 36 31  4  0
 21 16  4  0
  1 47  1  0
  2 48  1  0
  4 49  1  0
  6 50  1  0
  7 51  1  0
  8 52  1  0
 11 53  1  0
 13 54  1  0
 15 55  1  0
 17 56  1  0
 18 57  1  0
 19 58  1  0
 20 59  1  0
 22 60  1  0
 24 61  1  0
 26 62  1  0
 30 63  1  0
 32 64  1  0
 33 65  1  0
 34 66  1  0
 35 67  1  0
 37 68  1  0
 39 69  1  0
 40 70  1  0
 41 71  1  0
 43 72  1  0
 45 73  1  0
 46 74  1  0
M  END
