
     RDKit          3D

 74 83  0  0  0  0  0  0  0  0999 V2000
   -4.0611    3.8225    3.3636 C   0  0  0  0  0  0  0  0  0  0  0  0
   -3.0308    2.9821    3.7733 C   0  0  0  0  0  0  0  0  0  0  0  0
   -2.2048    2.3806    2.8235 C   0  0  0  0  0  0  0  0  0  0  0  0
   -2.4010    2.6100    1.4514 C   0  0  0  0  0  0  0  0  0  0  0  0
   -1.5810    2.0090    0.4820 C   0  0  0  0  0  0  0  0  0  0  0  0
   -1.7717    2.2067   -0.9065 C   0  0  0  0  0  0  0  0  0  0  0  0
   -2.8214    3.0689   -1.3049 C   0  0  0  0  0  0  0  0  0  0  0  0
   -3.6387    3.6772   -0.3362 C   0  0  0  0  0  0  0  0  0  0  0  0
   -3.4453    3.4566    1.0361 C   0  0  0  0  0  0  0  0  0  0  0  0
   -4.2677    4.0585    2.0034 C   0  0  0  0  0  0  0  0  0  0  0  0
   -3.0454    3.3141   -2.6678 C   0  0  0  0  0  0  0  0  0  0  0  0
   -2.2485    2.7215   -3.6423 C   0  0  0  0  0  0  0  0  0  0  0  0
   -1.2199    1.8654   -3.2653 C   0  0  0  0  0  0  0  0  0  0  0  0
   -0.9705    1.5838   -1.9092 C   0  0  0  0  0  0  0  0  0  0  0  0
    0.1276    0.6494   -1.5789 C   0  0  0  0  0  0  0  0  0  0  0  0
    1.3850    1.1820   -1.2322 C   0  0  0  0  0  0  0  0  0  0  0  0
    2.4721    0.3586   -0.8988 C   0  0  0  0  0  0  0  0  0  0  0  0
    3.7205    0.8991   -0.5486 C   0  0  0  0  0  0  0  0  0  0  0  0
    4.8081    0.0752   -0.2136 C   0  0  0  0  0  0  0  0  0  0  0  0
    6.0564    0.6166    0.1371 C   0  0  0  0  0  0  0  0  0  0  0  0
    7.1442   -0.2069    0.4715 C   0  0  0  0  0  0  0  0  0  0  0  0
    8.3926    0.3337    0.8215 C   0  0  0  0  0  0  0  0  0  0  0  0
    9.4636   -0.4981    1.1515 C   0  0  0  0  0  0  0  0  0  0  0  0
    9.3007   -1.8798    1.1362 C   0  0  0  0  0  0  0  0  0  0  0  0
    8.0665   -2.4320    0.7903 C   0  0  0  0  0  0  0  0  0  0  0  0
    6.9790   -1.6082    0.4552 C   0  0  0  0  0  0  0  0  0  0  0  0
    5.7306   -2.1484    0.1044 C   0  0  0  0  0  0  0  0  0  0  0  0
    4.6428   -1.3236   -0.2299 C   0  0  0  0  0  0  0  0  0  0  0  0
    3.3933   -1.8630   -0.5803 C   0  0  0  0  0  0  0  0  0  0  0  0
    2.3062   -1.0383   -0.9149 C   0  0  0  0  0  0  0  0  0  0  0  0
    1.0575   -1.5763   -1.2657 C   0  0  0  0  0  0  0  0  0  0  0  0
   -0.0384   -0.7559   -1.5988 C   0  0  0  0  0  0  0  0  0  0  0  0
   -1.3185   -1.3994   -1.9663 C   0  0  0  0  0  0  0  0  0  0  0  0
   -1.5433   -1.6969   -3.3238 C   0  0  0  0  0  0  0  0  0  0  0  0
   -2.7321   -2.2838   -3.7422 C   0  0  0  0  0  0  0  0  0  0  0  0
   -3.7176   -2.5868   -2.8081 C   0  0  0  0  0  0  0  0  0  0  0  0
   -3.5271   -2.3178   -1.4445 C   0  0  0  0  0  0  0  0  0  0  0  0
   -4.5359   -2.6326   -0.5175 C   0  0  0  0  0  0  0  0  0  0  0  0
   -4.3824   -2.3794    0.8541 C   0  0  0  0  0  0  0  0  0  0  0  0
   -5.3950   -2.6866    1.7788 C   0  0  0  0  0  0  0  0  0  0  0  0
   -5.2242   -2.4227    3.1388 C   0  0  0  0  0  0  0  0  0  0  0  0
   -4.0404   -1.8476    3.5907 C   0  0  0  0  0  0  0  0  0  0  0  0
   -3.0260   -1.5400    2.6834 C   0  0  0  0  0  0  0  0  0  0  0  0
   -3.1835   -1.8023    1.3121 C   0  0  0  0  0  0  0  0  0  0  0  0
   -2.1728   -1.4970    0.3847 C   0  0  0  0  0  0  0  0  0  0  0  0
   -2.3177   -1.7284   -1.0036 C   0  0  0  0  0  0  0  0  0  0  0  0
   -4.7063    4.2928    4.1008 H   0  0  0  0  0  0  0  0  0  0  0  0
   -2.8688    2.7927    4.8310 H   0  0  0  0  0  0  0  0  0  0  0  0
   -1.4073    1.7233    3.1617 H   0  0  0  0  0  0  0  0  0  0  0  0
   -0.7759    1.3616    0.8227 H   0  0  0  0  0  0  0  0  0  0  0  0
   -4.4471    4.3321   -0.6566 H   0  0  0  0  0  0  0  0  0  0  0  0
   -5.0804    4.7150    1.7012 H   0  0  0  0  0  0  0  0  0  0  0  0
   -3.8500    3.9753   -2.9830 H   0  0  0  0  0  0  0  0  0  0  0  0
   -2.4330    2.9218   -4.6941 H   0  0  0  0  0  0  0  0  0  0  0  0
   -0.6080    1.4026   -4.0367 H   0  0  0  0  0  0  0  0  0  0  0  0
    1.5078    2.2647   -1.2197 H   0  0  0  0  0  0  0  0  0  0  0  0
    3.8476    1.9804   -0.5364 H   0  0  0  0  0  0  0  0  0  0  0  0
    6.1838    1.6976    0.1503 H   0  0  0  0  0  0  0  0  0  0  0  0
    8.5405    1.4112    0.8390 H   0  0  0  0  0  0  0  0  0  0  0  0
   10.4239   -0.0660    1.4204 H   0  0  0  0  0  0  0  0  0  0  0  0
   10.1335   -2.5292    1.3932 H   0  0  0  0  0  0  0  0  0  0  0  0
    7.9595   -3.5144    0.7842 H   0  0  0  0  0  0  0  0  0  0  0  0
    5.6038   -3.2295    0.0913 H   0  0  0  0  0  0  0  0  0  0  0  0
    3.2645   -2.9441   -0.5928 H   0  0  0  0  0  0  0  0  0  0  0  0
    0.9235   -2.6576   -1.2798 H   0  0  0  0  0  0  0  0  0  0  0  0
   -0.7826   -1.4575   -4.0642 H   0  0  0  0  0  0  0  0  0  0  0  0
   -2.8937   -2.4985   -4.7948 H   0  0  0  0  0  0  0  0  0  0  0  0
   -4.6443   -3.0393   -3.1554 H   0  0  0  0  0  0  0  0  0  0  0  0
   -5.4635   -3.0792   -0.8708 H   0  0  0  0  0  0  0  0  0  0  0  0
   -6.3285   -3.1328    1.4434 H   0  0  0  0  0  0  0  0  0  0  0  0
   -6.0165   -2.6638    3.8427 H   0  0  0  0  0  0  0  0  0  0  0  0
   -3.9060   -1.6366    4.6483 H   0  0  0  0  0  0  0  0  0  0  0  0
   -2.1111   -1.0827    3.0525 H   0  0  0  0  0  0  0  0  0  0  0  0
   -1.2497   -1.0595    0.7582 H   0  0  0  0  0  0  0  0  0  0  0  0
  1  2  4  0
  2  3  4  0
  3  4  4  0
  4  5  4  0
  5  6  4  0
  6  7  4  0
  7  8  4  0
  8  9  4  0
  9 10  4  0
  7 11  4  0
 11 12  4  0
 12 13  4  0
 13 14  4  0
 14 15  1  0
 15 16  4  0
 16 17  4  0
 17 18  4  0
 18 19  4  0
 19 20  4  0
 20 21  4  0
 21 22  4  0
 22 23  4  0
 23 24  4  0
 24 25  4  0
 25 26  4  0
 26 27  4  0
 27 28  4  0
 28 29  4  0
 29 30  4  0
 30 31  4  0
 31 32  4  0
 32 33  1  0
 33 34  4  0
 34 35  4  0
 35 36  4  0
 36 37  4  0
 37 38  4  0
 38 39  4  0
 39 40  4  0
 40 41  4  0
 41 42  4  0
 42 43  4  0
 43 44  4  0
 44 45  4  0
 45 46  4  0
 10  1  4  0
 32 15  4  0
 46 33  4  0
  9  4  4  0
 30 17  4  0
 46 37  4  0
 14  6  4  0
 28 19  4  0
 44 39  4  0
 26 21  4  0
  1 47  1  0
  2 48  1  0
  3 49  1  0
  5 50  1  0
  8 51  1  0
 10 52  1  0
 11 53  1  0
 12 54  1  0
 13 55  1  0
 16 56  1  0
 18 57  1  0
 20 58  1  0
 22 59  1  0
 23 60  1  0
 24 61  1  0
 25 62  1  0
 27 63  1  0
 29 64  1  0
 31 65  1  0
 34 66  1  0
 35 67  1  0
 36 68  1  0
 38 69  1  0
 40 70  1  0
 41 71  1  0
 42 72  1  0
 43 73  1  0
 45 74  1  0
M  END
