
     RDKit          3D

 74 83  0  0  0  0  0  0  0  0999 V2000
    8.6720    1.7825    1.0267 C   0  0  0  0  0  0  0  0  0  0  0  0
    7.6324    2.1356    0.1651 C   0  0  0  0  0  0  0  0  0  0  0  0
    6.3862    1.4914    0.2402 C   0  0  0  0  0  0  0  0  0  0  0  0
    5.3300    1.8357   -0.6195 C   0  0  0  0  0  0  0  0  0  0  0  0
    4.0853    1.1892   -0.5447 C   0  0  0  0  0  0  0  0  0  0  0  0
    3.0326    1.5315   -1.4051 C   0  0  0  0  0  0  0  0  0  0  0  0
    1.7989    0.8812   -1.3186 C   0  0  0  0  0  0  0  0  0  0  0  0
    1.5805   -0.1218   -0.3657 C   0  0  0  0  0  0  0  0  0  0  0  0
    0.2764   -0.8039   -0.2642 C   0  0  0  0  0  0  0  0  0  0  0  0
    0.2003   -2.1678   -0.6148 C   0  0  0  0  0  0  0  0  0  0  0  0
   -1.0054   -2.8859   -0.5573 C   0  0  0  0  0  0  0  0  0  0  0  0
   -1.0697   -4.2444   -0.9109 C   0  0  0  0  0  0  0  0  0  0  0  0
   -2.2765   -4.9615   -0.8513 C   0  0  0  0  0  0  0  0  0  0  0  0
   -2.3402   -6.3203   -1.2038 C   0  0  0  0  0  0  0  0  0  0  0  0
   -3.5467   -7.0371   -1.1430 C   0  0  0  0  0  0  0  0  0  0  0  0
   -3.6110   -8.3956   -1.4948 C   0  0  0  0  0  0  0  0  0  0  0  0
   -4.8176   -9.0939   -1.4287 C   0  0  0  0  0  0  0  0  0  0  0  0
   -5.9745   -8.4438   -1.0106 C   0  0  0  0  0  0  0  0  0  0  0  0
   -5.9268   -7.0943   -0.6580 C   0  0  0  0  0  0  0  0  0  0  0  0
   -4.7200   -6.3778   -0.7191 C   0  0  0  0  0  0  0  0  0  0  0  0
   -4.6554   -5.0194   -0.3675 C   0  0  0  0  0  0  0  0  0  0  0  0
   -3.4478   -4.3033   -0.4285 C   0  0  0  0  0  0  0  0  0  0  0  0
   -3.3825   -2.9444   -0.0769 C   0  0  0  0  0  0  0  0  0  0  0  0
   -2.1750   -2.2286   -0.1371 C   0  0  0  0  0  0  0  0  0  0  0  0
   -2.1081   -0.8707    0.2141 C   0  0  0  0  0  0  0  0  0  0  0  0
   -0.9015   -0.1433    0.1601 C   0  0  0  0  0  0  0  0  0  0  0  0
   -0.9183    1.2753    0.5599 C   0  0  0  0  0  0  0  0  0  0  0  0
   -0.3128    1.6963    1.7501 C   0  0  0  0  0  0  0  0  0  0  0  0
   -0.3217    3.0440    2.1193 C   0  0  0  0  0  0  0  0  0  0  0  0
   -0.9393    4.0064    1.3072 C   0  0  0  0  0  0  0  0  0  0  0  0
   -0.9493    5.3659    1.6611 C   0  0  0  0  0  0  0  0  0  0  0  0
   -1.5647    6.3298    0.8454 C   0  0  0  0  0  0  0  0  0  0  0  0
   -1.5732    7.6900    1.1965 C   0  0  0  0  0  0  0  0  0  0  0  0
   -2.1883    8.6361    0.3750 C   0  0  0  0  0  0  0  0  0  0  0  0
   -2.8022    8.2350   -0.8074 C   0  0  0  0  0  0  0  0  0  0  0  0
   -2.8020    6.8871   -1.1701 C   0  0  0  0  0  0  0  0  0  0  0  0
   -2.1873    5.9229   -0.3541 C   0  0  0  0  0  0  0  0  0  0  0  0
   -2.1778    4.5630   -0.7064 C   0  0  0  0  0  0  0  0  0  0  0  0
   -1.5609    3.5994    0.1089 C   0  0  0  0  0  0  0  0  0  0  0  0
   -1.5460    2.2391   -0.2468 C   0  0  0  0  0  0  0  0  0  0  0  0
    2.6396   -0.4676    0.4907 C   0  0  0  0  0  0  0  0  0  0  0  0
    3.8885    0.1753    0.4149 C   0  0  0  0  0  0  0  0  0  0  0  0
    4.9442   -0.1682    1.2761 C   0  0  0  0  0  0  0  0  0  0  0  0
    6.1907    0.4760    1.2007 C   0  0  0  0  0  0  0  0  0  0  0  0
    7.2470    0.1325    2.0610 C   0  0  0  0  0  0  0  0  0  0  0  0
    8.4795    0.7818    1.9740 C   0  0  0  0  0  0  0  0  0  0  0  0
    9.6307    2.2898    0.9575 H   0  0  0  0  0  0  0  0  0  0  0  0
    7.8013    2.9211   -0.5681 H   0  0  0  0  0  0  0  0  0  0  0  0
    5.4783    2.6207   -1.3588 H   0  0  0  0  0  0  0  0  0  0  0  0
    3.1607    2.3127   -2.1510 H   0  0  0  0  0  0  0  0  0  0  0  0
    1.0018    1.1700   -2.0005 H   0  0  0  0  0  0  0  0  0  0  0  0
    1.1055   -2.6738   -0.9500 H   0  0  0  0  0  0  0  0  0  0  0  0
   -0.1639   -4.7524   -1.2378 H   0  0  0  0  0  0  0  0  0  0  0  0
   -1.4353   -6.8290   -1.5312 H   0  0  0  0  0  0  0  0  0  0  0  0
   -2.7178   -8.9217   -1.8244 H   0  0  0  0  0  0  0  0  0  0  0  0
   -4.8526  -10.1448   -1.7039 H   0  0  0  0  0  0  0  0  0  0  0  0
   -6.9151   -8.9858   -0.9586 H   0  0  0  0  0  0  0  0  0  0  0  0
   -6.8422   -6.6040   -0.3341 H   0  0  0  0  0  0  0  0  0  0  0  0
   -5.5609   -4.5113   -0.0407 H   0  0  0  0  0  0  0  0  0  0  0  0
   -4.2876   -2.4350    0.2496 H   0  0  0  0  0  0  0  0  0  0  0  0
   -3.0119   -0.3616    0.5485 H   0  0  0  0  0  0  0  0  0  0  0  0
    0.1786    0.9731    2.3976 H   0  0  0  0  0  0  0  0  0  0  0  0
    0.1655    3.3354    3.0470 H   0  0  0  0  0  0  0  0  0  0  0  0
   -0.4680    5.6793    2.5857 H   0  0  0  0  0  0  0  0  0  0  0  0
   -1.0981    8.0235    2.1164 H   0  0  0  0  0  0  0  0  0  0  0  0
   -2.1869    9.6851    0.6594 H   0  0  0  0  0  0  0  0  0  0  0  0
   -3.2817    8.9700   -1.4486 H   0  0  0  0  0  0  0  0  0  0  0  0
   -3.2868    6.5932   -2.0983 H   0  0  0  0  0  0  0  0  0  0  0  0
   -2.6563    4.2498   -1.6324 H   0  0  0  0  0  0  0  0  0  0  0  0
   -2.0174    1.9220   -1.1756 H   0  0  0  0  0  0  0  0  0  0  0  0
    2.4817   -1.2446    1.2371 H   0  0  0  0  0  0  0  0  0  0  0  0
    4.7937   -0.9503    2.0179 H   0  0  0  0  0  0  0  0  0  0  0  0
    7.1152   -0.6463    2.8088 H   0  0  0  0  0  0  0  0  0  0  0  0
    9.2876    0.5060    2.6465 H   0  0  0  0  0  0  0  0  0  0  0  0
  1  2  4  0
  2  3  4  0
  3  4  4  0
  4  5  4  0
  5  6  4  0
  6  7  4  0
  7  8  4  0
  8  9  1  0
  9 10  4  0
 10 11  4  0
 11 12  4  0
 12 13  4  0
 13 14  4  0
 14 15  4  0
 15 16  4  0
 16 17  4  0
 17 18  4  0
 18 19  4  0
 19 20  4  0
 20 21  4  0
 21 22  4  0
 22 23  4  0
 23 24  4  0
 24 25  4  0
 25 26  4  0
 26 27  1  0
 27 28  4  0
 28 29  4  0
 29 30  4  0
 30 31  4  0
 31 32  4  0
 32 33  4  0
 33 34  4  0
 34 35  4  0
 35 36  4  0
 36 37  4  0
 37 38  4  0
 38 39  4  0
 39 40  4  0
  8 41  4  0
 41 42  4  0
 42 43  4  0
 43 44  4  0
 44 45  4  0
 45 46  4  0
 46  1  4  0
 44  3  4  0
 42  5  4  0
 26  9  4  0
 40 27  4  0
 24 11  4  0
 39 30  4  0
 22 13  4  0
 37 32  4  0
 20 15  4  0
  1 47  1  0
  2 48  1  0
  4 49  1  0
  6 50  1  0
  7 51  1  0
 10 52  1  0
 12 53  1  0
 14 54  1  0
 16 55  1  0
 17 56  1  0
 18 57  1  0
 19 58  1  0
 21 59  1  0
 23 60  1  0
 25 61  1  0
 28 62  1  0
 29 63  1  0
 31 64  1  0
 33 65  1  0
 34 66  1  0
 35 67  1  0
 36 68  1  0
 38 69  1  0
 40 70  1  0
 41 71  1  0
 43 72  1  0
 45 73  1  0
 46 74  1  0
M  END
