
     RDKit          3D

 94107  0  0  0  0  0  0  0  0999 V2000
   -8.5395   -7.9088    1.6586 C   0  0  0  0  0  0  0  0  0  0  0  0
   -7.8197   -7.8233    2.8467 C   0  0  0  0  0  0  0  0  0  0  0  0
   -6.8551   -6.8277    3.0077 C   0  0  0  0  0  0  0  0  0  0  0  0
   -6.5998   -5.9052    1.9799 C   0  0  0  0  0  0  0  0  0  0  0  0
   -5.6352   -4.8958    2.1185 C   0  0  0  0  0  0  0  0  0  0  0  0
   -5.3811   -3.9821    1.1039 C   0  0  0  0  0  0  0  0  0  0  0  0
   -4.4466   -3.0314    1.2869 N   0  0  0  0  0  0  0  0  0  0  0  0
   -4.2350   -2.1658    0.2795 C   0  0  0  0  0  0  0  0  0  0  0  0
   -3.2837   -1.1643    0.4278 C   0  0  0  0  0  0  0  0  0  0  0  0
   -3.0206   -0.2355   -0.5906 C   0  0  0  0  0  0  0  0  0  0  0  0
   -2.0656    0.7854   -0.4323 C   0  0  0  0  0  0  0  0  0  0  0  0
   -1.8234    1.7241   -1.4477 C   0  0  0  0  0  0  0  0  0  0  0  0
   -0.8713    2.8316   -1.2501 C   0  0  0  0  0  0  0  0  0  0  0  0
   -1.3986    4.1321   -1.0910 C   0  0  0  0  0  0  0  0  0  0  0  0
   -0.5777    5.2514   -0.8830 C   0  0  0  0  0  0  0  0  0  0  0  0
   -1.1168    6.5388   -0.7226 C   0  0  0  0  0  0  0  0  0  0  0  0
   -0.2923    7.6577   -0.5171 C   0  0  0  0  0  0  0  0  0  0  0  0
   -0.8309    8.9455   -0.3568 C   0  0  0  0  0  0  0  0  0  0  0  0
   -0.0062   10.0641   -0.1528 C   0  0  0  0  0  0  0  0  0  0  0  0
   -0.5445   11.3515    0.0073 C   0  0  0  0  0  0  0  0  0  0  0  0
    0.2878   12.4535    0.2086 C   0  0  0  0  0  0  0  0  0  0  0  0
    1.6679   12.2831    0.2525 C   0  0  0  0  0  0  0  0  0  0  0  0
    2.2180   11.0100    0.0952 C   0  0  0  0  0  0  0  0  0  0  0  0
    1.3935    9.8907   -0.1079 C   0  0  0  0  0  0  0  0  0  0  0  0
    1.9307    8.6025   -0.2675 C   0  0  0  0  0  0  0  0  0  0  0  0
    1.1047    7.4838   -0.4712 C   0  0  0  0  0  0  0  0  0  0  0  0
    1.6413    6.1948   -0.6299 C   0  0  0  0  0  0  0  0  0  0  0  0
    0.8150    5.0768   -0.8339 C   0  0  0  0  0  0  0  0  0  0  0  0
    1.3477    3.7869   -0.9912 C   0  0  0  0  0  0  0  0  0  0  0  0
    0.5310    2.6529   -1.1974 C   0  0  0  0  0  0  0  0  0  0  0  0
    1.1916    1.3428   -1.3646 C   0  0  0  0  0  0  0  0  0  0  0  0
    1.9546    0.7866   -0.3222 C   0  0  0  0  0  0  0  0  0  0  0  0
    2.6435   -0.4304   -0.4793 C   0  0  0  0  0  0  0  0  0  0  0  0
    3.4196   -0.9797    0.5537 C   0  0  0  0  0  0  0  0  0  0  0  0
    4.1189   -2.1703    0.3947 C   0  0  0  0  0  0  0  0  0  0  0  0
    4.8560   -2.6490    1.4137 N   0  0  0  0  0  0  0  0  0  0  0  0
    5.5185   -3.8032    1.2146 C   0  0  0  0  0  0  0  0  0  0  0  0
    6.2906   -4.3344    2.2396 C   0  0  0  0  0  0  0  0  0  0  0  0
    7.0018   -5.5338    2.0840 C   0  0  0  0  0  0  0  0  0  0  0  0
    7.7819   -6.0688    3.1222 C   0  0  0  0  0  0  0  0  0  0  0  0
    8.4808   -7.2635    2.9441 C   0  0  0  0  0  0  0  0  0  0  0  0
    8.4086   -7.9368    1.7282 C   0  0  0  0  0  0  0  0  0  0  0  0
    7.6372   -7.4165    0.6880 C   0  0  0  0  0  0  0  0  0  0  0  0
    6.9286   -6.2152    0.8532 C   0  0  0  0  0  0  0  0  0  0  0  0
    6.1467   -5.6729   -0.1780 C   0  0  0  0  0  0  0  0  0  0  0  0
    5.4449   -4.4851   -0.0173 C   0  0  0  0  0  0  0  0  0  0  0  0
    4.7085   -4.0059   -1.0366 N   0  0  0  0  0  0  0  0  0  0  0  0
    4.0432   -2.8530   -0.8362 C   0  0  0  0  0  0  0  0  0  0  0  0
    3.2689   -2.3197   -1.8594 C   0  0  0  0  0  0  0  0  0  0  0  0
    2.5652   -1.1143   -1.7058 C   0  0  0  0  0  0  0  0  0  0  0  0
    1.7953   -0.5708   -2.7448 C   0  0  0  0  0  0  0  0  0  0  0  0
    1.1227    0.6436   -2.5764 C   0  0  0  0  0  0  0  0  0  0  0  0
   -2.5497    1.6149   -2.6419 C   0  0  0  0  0  0  0  0  0  0  0  0
   -3.4936    0.5999   -2.8171 C   0  0  0  0  0  0  0  0  0  0  0  0
   -3.7426   -0.3274   -1.7954 C   0  0  0  0  0  0  0  0  0  0  0  0
   -4.7014   -1.3421   -1.9400 C   0  0  0  0  0  0  0  0  0  0  0  0
   -4.9602   -2.2552   -0.9260 C   0  0  0  0  0  0  0  0  0  0  0  0
   -5.8957   -3.2054   -1.1096 N   0  0  0  0  0  0  0  0  0  0  0  0
   -6.1104   -4.0690   -0.1002 C   0  0  0  0  0  0  0  0  0  0  0  0
   -7.0667   -5.0658   -0.2439 C   0  0  0  0  0  0  0  0  0  0  0  0
   -7.3285   -5.9917    0.7773 C   0  0  0  0  0  0  0  0  0  0  0  0
   -8.2961   -6.9987    0.6291 C   0  0  0  0  0  0  0  0  0  0  0  0
   -9.2911   -8.6839    1.5321 H   0  0  0  0  0  0  0  0  0  0  0  0
   -8.0083   -8.5315    3.6494 H   0  0  0  0  0  0  0  0  0  0  0  0
   -6.3030   -6.7772    3.9439 H   0  0  0  0  0  0  0  0  0  0  0  0
   -5.0617   -4.8114    3.0391 H   0  0  0  0  0  0  0  0  0  0  0  0
   -2.7422   -1.1101    1.3698 H   0  0  0  0  0  0  0  0  0  0  0  0
   -1.5083    0.8608    0.5008 H   0  0  0  0  0  0  0  0  0  0  0  0
   -2.4802    4.2672   -1.1218 H   0  0  0  0  0  0  0  0  0  0  0  0
   -2.1969    6.6713   -0.7580 H   0  0  0  0  0  0  0  0  0  0  0  0
   -1.9105    9.0804   -0.3917 H   0  0  0  0  0  0  0  0  0  0  0  0
   -1.6208   11.5055   -0.0240 H   0  0  0  0  0  0  0  0  0  0  0  0
   -0.1427   13.4439    0.3309 H   0  0  0  0  0  0  0  0  0  0  0  0
    2.3177   13.1403    0.4090 H   0  0  0  0  0  0  0  0  0  0  0  0
    3.2993   10.8978    0.1324 H   0  0  0  0  0  0  0  0  0  0  0  0
    3.0103    8.4683   -0.2331 H   0  0  0  0  0  0  0  0  0  0  0  0
    2.7210    6.0591   -0.5937 H   0  0  0  0  0  0  0  0  0  0  0  0
    2.4296    3.6558   -0.9639 H   0  0  0  0  0  0  0  0  0  0  0  0
    2.0174    1.3179    0.6271 H   0  0  0  0  0  0  0  0  0  0  0  0
    3.4955   -0.4679    1.5110 H   0  0  0  0  0  0  0  0  0  0  0  0
    6.3338   -3.7926    3.1820 H   0  0  0  0  0  0  0  0  0  0  0  0
    7.8508   -5.5571    4.0800 H   0  0  0  0  0  0  0  0  0  0  0  0
    9.0813   -7.6677    3.7552 H   0  0  0  0  0  0  0  0  0  0  0  0
    8.9526   -8.8676    1.5882 H   0  0  0  0  0  0  0  0  0  0  0  0
    7.5931   -7.9573   -0.2552 H   0  0  0  0  0  0  0  0  0  0  0  0
    6.0771   -6.1839   -1.1360 H   0  0  0  0  0  0  0  0  0  0  0  0
    3.2225   -2.8621   -2.8015 H   0  0  0  0  0  0  0  0  0  0  0  0
    1.7196   -1.0830   -3.7019 H   0  0  0  0  0  0  0  0  0  0  0  0
    0.5513    1.0485   -3.4093 H   0  0  0  0  0  0  0  0  0  0  0  0
   -2.3849    2.3290   -3.4468 H   0  0  0  0  0  0  0  0  0  0  0  0
   -4.0404    0.5471   -3.7564 H   0  0  0  0  0  0  0  0  0  0  0  0
   -5.2707   -1.4289   -2.8630 H   0  0  0  0  0  0  0  0  0  0  0  0
   -7.6186   -5.1155   -1.1801 H   0  0  0  0  0  0  0  0  0  0  0  0
   -8.8690   -7.0815   -0.2923 H   0  0  0  0  0  0  0  0  0  0  0  0
  1  2  4  0
  2  3  4  0
  3  4  4  0
  4  5  4  0
  5  6  4  0
  6  7  4  0
  7  8  4  0
  8  9  4  0
  9 10  4  0
 10 11  4  0
 11 12  4  0
 12 13  1  0
 13 14  4  0
 14 15  4  0
 15 16  4  0
 16 17  4  0
 17 18  4  0
 18 19  4  0
 19 20  4  0
 20 21  4  0
 21 22  4  0
 22 23  4  0
 23 24  4  0
 24 25  4  0
 25 26  4  0
 26 27  4  0
 27 28  4  0
 28 29  4  0
 29 30  4  0
 30 31  1  0
 31 32  4  0
 32 33  4  0
 33 34  4  0
 34 35  4  0
 35 36  4  0
 36 37  4  0
 37 38  4  0
 38 39  4  0
 39 40  4  0
 40 41  4  0
 41 42  4  0
 42 43  4  0
 43 44  4  0
 44 45  4  0
 45 46  4  0
 46 47  4  0
 47 48  4  0
 48 49  4  0
 49 50  4  0
 50 51  4  0
 51 52  4  0
 12 53  4  0
 53 54  4  0
 54 55  4  0
 55 56  4  0
 56 57  4  0
 57 58  4  0
 58 59  4  0
 59 60  4  0
 60 61  4  0
 61 62  4  0
 62  1  4  0
 61  4  4  0
 59  6  4  0
 57  8  4  0
 55 10  4  0
 30 13  4  0
 52 31  4  0
 28 15  4  0
 50 33  4  0
 26 17  4  0
 48 35  4  0
 24 19  4  0
 46 37  4  0
 44 39  4  0
  1 63  1  0
  2 64  1  0
  3 65  1  0
  5 66  1  0
  9 67  1  0
 11 68  1  0
 14 69  1  0
 16 70  1  0
 18 71  1  0
 20 72  1  0
 21 73  1  0
 22 74  1  0
 23 75  1  0
 25 76  1  0
 27 77  1  0
 29 78  1  0
 32 79  1  0
 34 80  1  0
 38 81  1  0
 40 82  1  0
 41 83  1  0
 42 84  1  0
 43 85  1  0
 45 86  1  0
 49 87  1  0
 51 88  1  0
 52 89  1  0
 53 90  1  0
 54 91  1  0
 56 92  1  0
 60 93  1  0
 62 94  1  0
M  END
