
     RDKit          3D

 94107  0  0  0  0  0  0  0  0999 V2000
    7.4910   -4.5513   -3.3017 C   0  0  0  0  0  0  0  0  0  0  0  0
    6.8397   -3.7700   -4.2517 C   0  0  0  0  0  0  0  0  0  0  0  0
    5.7835   -2.9428   -3.8681 C   0  0  0  0  0  0  0  0  0  0  0  0
    5.3670   -2.8892   -2.5279 C   0  0  0  0  0  0  0  0  0  0  0  0
    4.3063   -2.0686   -2.1184 C   0  0  0  0  0  0  0  0  0  0  0  0
    3.8897   -2.0207   -0.7946 C   0  0  0  0  0  0  0  0  0  0  0  0
    2.8589   -1.2301   -0.4542 N   0  0  0  0  0  0  0  0  0  0  0  0
    2.4467   -1.2126    0.8366 C   0  0  0  0  0  0  0  0  0  0  0  0
    3.1322   -1.9933    1.7888 C   0  0  0  0  0  0  0  0  0  0  0  0
    4.1722   -2.7805    1.4556 N   0  0  0  0  0  0  0  0  0  0  0  0
    4.5492   -2.8058    0.1663 C   0  0  0  0  0  0  0  0  0  0  0  0
    5.6050   -3.6176   -0.2296 C   0  0  0  0  0  0  0  0  0  0  0  0
    6.0274   -3.6789   -1.5661 C   0  0  0  0  0  0  0  0  0  0  0  0
    7.0885   -4.5064   -1.9662 C   0  0  0  0  0  0  0  0  0  0  0  0
    2.7405   -1.9598    3.1148 C   0  0  0  0  0  0  0  0  0  0  0  0
    1.6857   -1.1573    3.5582 C   0  0  0  0  0  0  0  0  0  0  0  0
    1.3386   -1.1393    4.9200 C   0  0  0  0  0  0  0  0  0  0  0  0
    0.2957   -0.3409    5.3834 C   0  0  0  0  0  0  0  0  0  0  0  0
   -0.4067    0.4551    4.4909 C   0  0  0  0  0  0  0  0  0  0  0  0
   -0.0652    0.4468    3.1366 C   0  0  0  0  0  0  0  0  0  0  0  0
    0.9757   -0.3677    2.6296 C   0  0  0  0  0  0  0  0  0  0  0  0
    1.3448   -0.4294    1.2500 C   0  0  0  0  0  0  0  0  0  0  0  0
    0.5811    0.3248    0.2192 C   0  0  0  0  0  0  0  0  0  0  0  0
    1.0885    1.5628   -0.2240 C   0  0  0  0  0  0  0  0  0  0  0  0
    0.4379    2.3209   -1.2100 C   0  0  0  0  0  0  0  0  0  0  0  0
    0.9594    3.5479   -1.6528 C   0  0  0  0  0  0  0  0  0  0  0  0
    0.3134    4.3042   -2.6449 C   0  0  0  0  0  0  0  0  0  0  0  0
    0.8395    5.5282   -3.0912 C   0  0  0  0  0  0  0  0  0  0  0  0
    0.1968    6.2831   -4.0864 C   0  0  0  0  0  0  0  0  0  0  0  0
    0.7247    7.5056   -4.5345 C   0  0  0  0  0  0  0  0  0  0  0  0
    0.0757    8.2433   -5.5254 C   0  0  0  0  0  0  0  0  0  0  0  0
   -1.1082    7.7691   -6.0813 C   0  0  0  0  0  0  0  0  0  0  0  0
   -1.6455    6.5564   -5.6464 C   0  0  0  0  0  0  0  0  0  0  0  0
   -1.0045    5.8019   -4.6493 C   0  0  0  0  0  0  0  0  0  0  0  0
   -1.5306    4.5787   -4.2004 C   0  0  0  0  0  0  0  0  0  0  0  0
   -0.8858    3.8234   -3.2054 C   0  0  0  0  0  0  0  0  0  0  0  0
   -1.4085    2.5973   -2.7590 C   0  0  0  0  0  0  0  0  0  0  0  0
   -0.7590    1.8387   -1.7702 C   0  0  0  0  0  0  0  0  0  0  0  0
   -1.2741    0.6075   -1.3324 C   0  0  0  0  0  0  0  0  0  0  0  0
   -0.6230   -0.1651   -0.3496 C   0  0  0  0  0  0  0  0  0  0  0  0
   -1.2231   -1.4669    0.0503 C   0  0  0  0  0  0  0  0  0  0  0  0
   -0.7563   -2.6921   -0.5201 C   0  0  0  0  0  0  0  0  0  0  0  0
    0.2184   -2.7695   -1.5437 C   0  0  0  0  0  0  0  0  0  0  0  0
    0.6623   -3.9913   -2.0537 C   0  0  0  0  0  0  0  0  0  0  0  0
    0.1355   -5.1759   -1.5619 C   0  0  0  0  0  0  0  0  0  0  0  0
   -0.8398   -5.1342   -0.5684 C   0  0  0  0  0  0  0  0  0  0  0  0
   -1.2931   -3.9087   -0.0502 C   0  0  0  0  0  0  0  0  0  0  0  0
   -2.2829   -3.8877    0.9357 C   0  0  0  0  0  0  0  0  0  0  0  0
   -2.7767   -2.7057    1.4569 C   0  0  0  0  0  0  0  0  0  0  0  0
   -3.7496   -2.7823    2.3838 N   0  0  0  0  0  0  0  0  0  0  0  0
   -4.2303   -1.6317    2.8827 C   0  0  0  0  0  0  0  0  0  0  0  0
   -5.2232   -1.6621    3.8535 C   0  0  0  0  0  0  0  0  0  0  0  0
   -5.7538   -0.4854    4.4036 C   0  0  0  0  0  0  0  0  0  0  0  0
   -6.7535   -0.5173    5.3893 C   0  0  0  0  0  0  0  0  0  0  0  0
   -7.2662    0.6664    5.9220 C   0  0  0  0  0  0  0  0  0  0  0  0
   -6.7862    1.8943    5.4760 C   0  0  0  0  0  0  0  0  0  0  0  0
   -5.7935    1.9411    4.4963 C   0  0  0  0  0  0  0  0  0  0  0  0
   -5.2679    0.7577    3.9526 C   0  0  0  0  0  0  0  0  0  0  0  0
   -4.2675    0.7790    2.9697 C   0  0  0  0  0  0  0  0  0  0  0  0
   -3.7440   -0.3914    2.4363 C   0  0  0  0  0  0  0  0  0  0  0  0
   -2.7775   -0.3213    1.5059 N   0  0  0  0  0  0  0  0  0  0  0  0
   -2.2619   -1.4725    1.0088 C   0  0  0  0  0  0  0  0  0  0  0  0
    8.3143   -5.1959   -3.5993 H   0  0  0  0  0  0  0  0  0  0  0  0
    7.1539   -3.8035   -5.2920 H   0  0  0  0  0  0  0  0  0  0  0  0
    5.2867   -2.3388   -4.6247 H   0  0  0  0  0  0  0  0  0  0  0  0
    3.7811   -1.4499   -2.8430 H   0  0  0  0  0  0  0  0  0  0  0  0
    6.1036   -4.2171    0.5290 H   0  0  0  0  0  0  0  0  0  0  0  0
    7.6110   -5.1241   -1.2386 H   0  0  0  0  0  0  0  0  0  0  0  0
    3.2917   -2.5758    3.8232 H   0  0  0  0  0  0  0  0  0  0  0  0
    1.8818   -1.7535    5.6360 H   0  0  0  0  0  0  0  0  0  0  0  0
    0.0347   -0.3419    6.4381 H   0  0  0  0  0  0  0  0  0  0  0  0
   -1.2250    1.0800    4.8389 H   0  0  0  0  0  0  0  0  0  0  0  0
   -0.6397    1.0863    2.4678 H   0  0  0  0  0  0  0  0  0  0  0  0
    2.0202    1.9297    0.2050 H   0  0  0  0  0  0  0  0  0  0  0  0
    1.8872    3.9183   -1.2199 H   0  0  0  0  0  0  0  0  0  0  0  0
    1.7668    5.8995   -2.6585 H   0  0  0  0  0  0  0  0  0  0  0  0
    1.6498    7.8926   -4.1131 H   0  0  0  0  0  0  0  0  0  0  0  0
    0.4959    9.1872   -5.8627 H   0  0  0  0  0  0  0  0  0  0  0  0
   -1.6147    8.3416   -6.8540 H   0  0  0  0  0  0  0  0  0  0  0  0
   -2.5715    6.2031   -6.0946 H   0  0  0  0  0  0  0  0  0  0  0  0
   -2.4567    4.2058   -4.6342 H   0  0  0  0  0  0  0  0  0  0  0  0
   -2.3353    2.2241   -3.1915 H   0  0  0  0  0  0  0  0  0  0  0  0
   -2.2026    0.2331   -1.7617 H   0  0  0  0  0  0  0  0  0  0  0  0
    0.6587   -1.8622   -1.9550 H   0  0  0  0  0  0  0  0  0  0  0  0
    1.4233   -4.0087   -2.8292 H   0  0  0  0  0  0  0  0  0  0  0  0
    0.4799   -6.1304   -1.9500 H   0  0  0  0  0  0  0  0  0  0  0  0
   -1.2470   -6.0732   -0.1982 H   0  0  0  0  0  0  0  0  0  0  0  0
   -2.7018   -4.8213    1.3071 H   0  0  0  0  0  0  0  0  0  0  0  0
   -5.5842   -2.6327    4.1866 H   0  0  0  0  0  0  0  0  0  0  0  0
   -7.1410   -1.4676    5.7508 H   0  0  0  0  0  0  0  0  0  0  0  0
   -8.0399    0.6285    6.6847 H   0  0  0  0  0  0  0  0  0  0  0  0
   -7.1838    2.8174    5.8895 H   0  0  0  0  0  0  0  0  0  0  0  0
   -5.4329    2.9111    4.1600 H   0  0  0  0  0  0  0  0  0  0  0  0
   -3.8779    1.7274    2.6056 H   0  0  0  0  0  0  0  0  0  0  0  0
  1  2  4  0
  2  3  4  0
  3  4  4  0
  4  5  4  0
  5  6  4  0
  6  7  4  0
  7  8  4  0
  8  9  4  0
  9 10  4  0
 10 11  4  0
 11 12  4  0
 12 13  4  0
 13 14  4  0
  9 15  4  0
 15 16  4  0
 16 17  4  0
 17 18  4  0
 18 19  4  0
 19 20  4  0
 20 21  4  0
 21 22  4  0
 22 23  1  0
 23 24  4  0
 24 25  4  0
 25 26  4  0
 26 27  4  0
 27 28  4  0
 28 29  4  0
 29 30  4  0
 30 31  4  0
 31 32  4  0
 32 33  4  0
 33 34  4  0
 34 35  4  0
 35 36  4  0
 36 37  4  0
 37 38  4  0
 38 39  4  0
 39 40  4  0
 40 41  1  0
 41 42  4  0
 42 43  4  0
 43 44  4  0
 44 45  4  0
 45 46  4  0
 46 47  4  0
 47 48  4  0
 48 49  4  0
 49 50  4  0
 50 51  4  0
 51 52  4  0
 52 53  4  0
 53 54  4  0
 54 55  4  0
 55 56  4  0
 56 57  4  0
 57 58  4  0
 58 59  4  0
 59 60  4  0
 60 61  4  0
 61 62  4  0
 14  1  4  0
 21 16  4  0
 40 23  4  0
 62 41  4  0
 13  4  4  0
 38 25  4  0
 47 42  4  0
 62 49  4  0
 11  6  4  0
 36 27  4  0
 60 51  4  0
 22  8  4  0
 34 29  4  0
 58 53  4  0
  1 63  1  0
  2 64  1  0
  3 65  1  0
  5 66  1  0
 12 67  1  0
 14 68  1  0
 15 69  1  0
 17 70  1  0
 18 71  1  0
 19 72  1  0
 20 73  1  0
 24 74  1  0
 26 75  1  0
 28 76  1  0
 30 77  1  0
 31 78  1  0
 32 79  1  0
 33 80  1  0
 35 81  1  0
 37 82  1  0
 39 83  1  0
 43 84  1  0
 44 85  1  0
 45 86  1  0
 46 87  1  0
 48 88  1  0
 52 89  1  0
 54 90  1  0
 55 91  1  0
 56 92  1  0
 57 93  1  0
 59 94  1  0
M  END
