
     RDKit          3D

 96107  0  0  0  0  0  0  0  0999 V2000
   -1.6081   -2.1880    1.5356 C   0  0  0  0  0  0  0  0  0  0  0  0
   -1.0542   -0.8971    1.3591 C   0  0  0  0  0  0  0  0  0  0  0  0
   -1.4380    0.0441    0.3246 C   0  0  0  0  0  0  0  0  0  0  0  0
   -0.7734    1.3661    0.2727 C   0  0  0  0  0  0  0  0  0  0  0  0
   -1.5426    2.5153    0.5516 C   0  0  0  0  0  0  0  0  0  0  0  0
   -0.9887    3.8059    0.5365 C   0  0  0  0  0  0  0  0  0  0  0  0
   -1.7649    4.9430    0.8179 C   0  0  0  0  0  0  0  0  0  0  0  0
   -1.2081    6.2330    0.8028 C   0  0  0  0  0  0  0  0  0  0  0  0
   -1.9845    7.3699    1.0839 C   0  0  0  0  0  0  0  0  0  0  0  0
   -1.4277    8.6594    1.0689 C   0  0  0  0  0  0  0  0  0  0  0  0
   -2.2033    9.7965    1.3499 C   0  0  0  0  0  0  0  0  0  0  0  0
   -1.6351   11.0711    1.3309 C   0  0  0  0  0  0  0  0  0  0  0  0
   -0.2853   11.2255    1.0311 C   0  0  0  0  0  0  0  0  0  0  0  0
    0.4985   10.1054    0.7497 C   0  0  0  0  0  0  0  0  0  0  0  0
   -0.0587    8.8160    0.7648 C   0  0  0  0  0  0  0  0  0  0  0  0
    0.7167    7.6788    0.4839 C   0  0  0  0  0  0  0  0  0  0  0  0
    0.1584    6.3893    0.4992 C   0  0  0  0  0  0  0  0  0  0  0  0
    0.9334    5.2516    0.2183 C   0  0  0  0  0  0  0  0  0  0  0  0
    0.3752    3.9621    0.2340 C   0  0  0  0  0  0  0  0  0  0  0  0
    1.1483    2.8240   -0.0461 C   0  0  0  0  0  0  0  0  0  0  0  0
    0.5993    1.5250   -0.0336 C   0  0  0  0  0  0  0  0  0  0  0  0
    1.4871    0.3858   -0.3516 C   0  0  0  0  0  0  0  0  0  0  0  0
    2.4910    0.0182    0.5882 C   0  0  0  0  0  0  0  0  0  0  0  0
    3.2391   -1.0712    0.1464 C   0  0  0  0  0  0  0  0  0  0  0  0
    4.2583   -1.7176    0.8071 C   0  0  0  0  0  0  0  0  0  0  0  0
    4.9674   -1.5579    2.0696 C   0  0  0  0  0  0  0  0  0  0  0  0
    5.3358   -0.2893    2.5374 C   0  0  0  0  0  0  0  0  0  0  0  0
    6.0169   -0.1466    3.7499 C   0  0  0  0  0  0  0  0  0  0  0  0
    6.3391   -1.2711    4.5071 C   0  0  0  0  0  0  0  0  0  0  0  0
    5.9845   -2.5390    4.0518 C   0  0  0  0  0  0  0  0  0  0  0  0
    5.3051   -2.6808    2.8391 C   0  0  0  0  0  0  0  0  0  0  0  0
    4.6817   -2.7725    0.0317 O   0  0  0  0  0  0  0  0  0  0  0  0
    3.9536   -2.7844   -1.1371 C   0  0  0  0  0  0  0  0  0  0  0  0
    4.3241   -3.8310   -2.0827 C   0  0  0  0  0  0  0  0  0  0  0  0
    4.3295   -3.5904   -3.4635 C   0  0  0  0  0  0  0  0  0  0  0  0
    4.6838   -4.5996   -4.3637 C   0  0  0  0  0  0  0  0  0  0  0  0
    5.0419   -5.8611   -3.8936 C   0  0  0  0  0  0  0  0  0  0  0  0
    5.0520   -6.1131   -2.5238 C   0  0  0  0  0  0  0  0  0  0  0  0
    4.6978   -5.1035   -1.6249 C   0  0  0  0  0  0  0  0  0  0  0  0
    3.0411   -1.7541   -1.0922 C   0  0  0  0  0  0  0  0  0  0  0  0
    2.0715   -1.4291   -2.0356 C   0  0  0  0  0  0  0  0  0  0  0  0
    1.3064   -0.3176   -1.6062 C   0  0  0  0  0  0  0  0  0  0  0  0
   -2.4457   -0.2552   -0.6362 C   0  0  0  0  0  0  0  0  0  0  0  0
   -2.9786   -1.5302   -0.4514 C   0  0  0  0  0  0  0  0  0  0  0  0
   -3.9621   -2.1525   -1.1870 C   0  0  0  0  0  0  0  0  0  0  0  0
   -4.7735   -1.8408   -2.3577 C   0  0  0  0  0  0  0  0  0  0  0  0
   -4.2405   -1.1404   -3.4478 C   0  0  0  0  0  0  0  0  0  0  0  0
   -5.0297   -0.8491   -4.5646 C   0  0  0  0  0  0  0  0  0  0  0  0
   -6.3606   -1.2593   -4.6064 C   0  0  0  0  0  0  0  0  0  0  0  0
   -6.9030   -1.9639   -3.5346 C   0  0  0  0  0  0  0  0  0  0  0  0
   -6.1134   -2.2538   -2.4191 C   0  0  0  0  0  0  0  0  0  0  0  0
   -4.1962   -3.3929   -0.6383 O   0  0  0  0  0  0  0  0  0  0  0  0
   -3.3648   -3.5658    0.4442 C   0  0  0  0  0  0  0  0  0  0  0  0
   -3.5269   -4.8342    1.1436 C   0  0  0  0  0  0  0  0  0  0  0  0
   -3.4636   -4.9053    2.5418 C   0  0  0  0  0  0  0  0  0  0  0  0
   -3.6240   -6.1267    3.2025 C   0  0  0  0  0  0  0  0  0  0  0  0
   -3.8534   -7.2909    2.4726 C   0  0  0  0  0  0  0  0  0  0  0  0
   -3.9263   -7.2353    1.0830 C   0  0  0  0  0  0  0  0  0  0  0  0
   -3.7668   -6.0141    0.4236 C   0  0  0  0  0  0  0  0  0  0  0  0
   -2.5915   -2.4359    0.5840 C   0  0  0  0  0  0  0  0  0  0  0  0
   -1.2827   -2.8655    2.3115 H   0  0  0  0  0  0  0  0  0  0  0  0
   -0.2752   -0.5929    2.0616 H   0  0  0  0  0  0  0  0  0  0  0  0
   -2.5975    2.3927    0.7971 H   0  0  0  0  0  0  0  0  0  0  0  0
   -2.8215    4.8226    1.0524 H   0  0  0  0  0  0  0  0  0  0  0  0
   -3.0407    7.2494    1.3184 H   0  0  0  0  0  0  0  0  0  0  0  0
   -3.2603    9.6964    1.5867 H   0  0  0  0  0  0  0  0  0  0  0  0
   -2.2473   11.9419    1.5503 H   0  0  0  0  0  0  0  0  0  0  0  0
    0.1593   12.2171    1.0157 H   0  0  0  0  0  0  0  0  0  0  0  0
    1.5518   10.2467    0.5177 H   0  0  0  0  0  0  0  0  0  0  0  0
    1.7726    7.8004    0.2492 H   0  0  0  0  0  0  0  0  0  0  0  0
    1.9899    5.3723   -0.0155 H   0  0  0  0  0  0  0  0  0  0  0  0
    2.2036    2.9448   -0.2899 H   0  0  0  0  0  0  0  0  0  0  0  0
    2.6200    0.5189    1.5379 H   0  0  0  0  0  0  0  0  0  0  0  0
    5.1167    0.6005    1.9524 H   0  0  0  0  0  0  0  0  0  0  0  0
    6.3029    0.8426    4.0978 H   0  0  0  0  0  0  0  0  0  0  0  0
    6.8727   -1.1602    5.4478 H   0  0  0  0  0  0  0  0  0  0  0  0
    6.2386   -3.4192    4.6366 H   0  0  0  0  0  0  0  0  0  0  0  0
    5.0358   -3.6773    2.4950 H   0  0  0  0  0  0  0  0  0  0  0  0
    4.0787   -2.6077   -3.8546 H   0  0  0  0  0  0  0  0  0  0  0  0
    4.6874   -4.3966   -5.4315 H   0  0  0  0  0  0  0  0  0  0  0  0
    5.3201   -6.6450   -4.5934 H   0  0  0  0  0  0  0  0  0  0  0  0
    5.3376   -7.0936   -2.1519 H   0  0  0  0  0  0  0  0  0  0  0  0
    4.7121   -5.3168   -0.5580 H   0  0  0  0  0  0  0  0  0  0  0  0
    1.8860   -1.9454   -2.9662 H   0  0  0  0  0  0  0  0  0  0  0  0
    0.5100    0.0245   -2.2708 H   0  0  0  0  0  0  0  0  0  0  0  0
   -2.7481    0.4407   -1.4063 H   0  0  0  0  0  0  0  0  0  0  0  0
   -3.1985   -0.8319   -3.4516 H   0  0  0  0  0  0  0  0  0  0  0  0
   -4.6008   -0.3082   -5.4043 H   0  0  0  0  0  0  0  0  0  0  0  0
   -6.9732   -1.0366   -5.4762 H   0  0  0  0  0  0  0  0  0  0  0  0
   -7.9387   -2.2922   -3.5643 H   0  0  0  0  0  0  0  0  0  0  0  0
   -6.5518   -2.8062   -1.5899 H   0  0  0  0  0  0  0  0  0  0  0  0
   -3.3090   -4.0074    3.1348 H   0  0  0  0  0  0  0  0  0  0  0  0
   -3.5758   -6.1660    4.2876 H   0  0  0  0  0  0  0  0  0  0  0  0
   -3.9814   -8.2401    2.9862 H   0  0  0  0  0  0  0  0  0  0  0  0
   -4.1098   -8.1402    0.5096 H   0  0  0  0  0  0  0  0  0  0  0  0
   -3.8278   -5.9874   -0.6628 H   0  0  0  0  0  0  0  0  0  0  0  0
  1  2  4  0
  2  3  4  0
  3  4  1  0
  4  5  4  0
  5  6  4  0
  6  7  4  0
  7  8  4  0
  8  9  4  0
  9 10  4  0
 10 11  4  0
 11 12  4  0
 12 13  4  0
 13 14  4  0
 14 15  4  0
 15 16  4  0
 16 17  4  0
 17 18  4  0
 18 19  4  0
 19 20  4  0
 20 21  4  0
 21 22  1  0
 22 23  4  0
 23 24  4  0
 24 25  4  0
 25 26  1  0
 26 27  4  0
 27 28  4  0
 28 29  4  0
 29 30  4  0
 30 31  4  0
 25 32  4  0
 32 33  4  0
 33 34  1  0
 34 35  4  0
 35 36  4  0
 36 37  4  0
 37 38  4  0
 38 39  4  0
 33 40  4  0
 40 41  4  0
 41 42  4  0
  3 43  4  0
 43 44  4  0
 44 45  4  0
 45 46  1  0
 46 47  4  0
 47 48  4  0
 48 49  4  0
 49 50  4  0
 50 51  4  0
 45 52  4  0
 52 53  4  0
 53 54  1  0
 54 55  4  0
 55 56  4  0
 56 57  4  0
 57 58  4  0
 58 59  4  0
 53 60  4  0
 60  1  4  0
 21  4  4  0
 42 22  4  0
 60 44  4  0
 19  6  4  0
 40 24  4  0
 51 46  4  0
 59 54  4  0
 17  8  4  0
 31 26  4  0
 39 34  4  0
 15 10  4  0
  1 61  1  0
  2 62  1  0
  5 63  1  0
  7 64  1  0
  9 65  1  0
 11 66  1  0
 12 67  1  0
 13 68  1  0
 14 69  1  0
 16 70  1  0
 18 71  1  0
 20 72  1  0
 23 73  1  0
 27 74  1  0
 28 75  1  0
 29 76  1  0
 30 77  1  0
 31 78  1  0
 35 79  1  0
 36 80  1  0
 37 81  1  0
 38 82  1  0
 39 83  1  0
 41 84  1  0
 42 85  1  0
 43 86  1  0
 47 87  1  0
 48 88  1  0
 49 89  1  0
 50 90  1  0
 51 91  1  0
 55 92  1  0
 56 93  1  0
 57 94  1  0
 58 95  1  0
 59 96  1  0
M  END
