
     RDKit          3D

 96107  0  0  0  0  0  0  0  0999 V2000
    8.1538    0.2640   -0.2874 C   0  0  0  0  0  0  0  0  0  0  0  0
    7.9768   -1.1352   -0.3878 C   0  0  0  0  0  0  0  0  0  0  0  0
    6.6719   -1.4940   -0.0570 C   0  0  0  0  0  0  0  0  0  0  0  0
    6.1275   -2.7575   -0.0123 C   0  0  0  0  0  0  0  0  0  0  0  0
    6.5756   -4.1139   -0.3027 C   0  0  0  0  0  0  0  0  0  0  0  0
    6.1632   -5.1852    0.5034 C   0  0  0  0  0  0  0  0  0  0  0  0
    6.5904   -6.4883    0.2360 C   0  0  0  0  0  0  0  0  0  0  0  0
    7.4319   -6.7370   -0.8457 C   0  0  0  0  0  0  0  0  0  0  0  0
    7.8420   -5.6854   -1.6621 C   0  0  0  0  0  0  0  0  0  0  0  0
    7.4144   -4.3819   -1.3932 C   0  0  0  0  0  0  0  0  0  0  0  0
    4.8237   -2.6558    0.4170 O   0  0  0  0  0  0  0  0  0  0  0  0
    4.5233   -1.3276    0.6166 C   0  0  0  0  0  0  0  0  0  0  0  0
    3.1533   -1.0640    1.0381 C   0  0  0  0  0  0  0  0  0  0  0  0
    2.5093   -1.9246    1.9369 C   0  0  0  0  0  0  0  0  0  0  0  0
    1.1979   -1.6786    2.3442 C   0  0  0  0  0  0  0  0  0  0  0  0
    0.5114   -0.5693    1.8516 C   0  0  0  0  0  0  0  0  0  0  0  0
    1.1215    0.3029    0.9389 C   0  0  0  0  0  0  0  0  0  0  0  0
    0.3973    1.4683    0.4000 C   0  0  0  0  0  0  0  0  0  0  0  0
    0.8065    2.7573    0.7986 C   0  0  0  0  0  0  0  0  0  0  0  0
    0.1654    3.9179    0.3364 C   0  0  0  0  0  0  0  0  0  0  0  0
    0.5794    5.1977    0.7430 C   0  0  0  0  0  0  0  0  0  0  0  0
   -0.0634    6.3575    0.2789 C   0  0  0  0  0  0  0  0  0  0  0  0
    0.3495    7.6370    0.6871 C   0  0  0  0  0  0  0  0  0  0  0  0
   -0.2931    8.7969    0.2231 C   0  0  0  0  0  0  0  0  0  0  0  0
    0.1178   10.0766    0.6314 C   0  0  0  0  0  0  0  0  0  0  0  0
   -0.5312   11.2193    0.1608 C   0  0  0  0  0  0  0  0  0  0  0  0
   -1.5986   11.0977   -0.7231 C   0  0  0  0  0  0  0  0  0  0  0  0
   -2.0190    9.8330   -1.1378 C   0  0  0  0  0  0  0  0  0  0  0  0
   -1.3761    8.6736   -0.6731 C   0  0  0  0  0  0  0  0  0  0  0  0
   -1.7878    7.3938   -1.0804 C   0  0  0  0  0  0  0  0  0  0  0  0
   -1.1451    6.2344   -0.6145 C   0  0  0  0  0  0  0  0  0  0  0  0
   -1.5585    4.9541   -1.0197 C   0  0  0  0  0  0  0  0  0  0  0  0
   -0.9167    3.7948   -0.5529 C   0  0  0  0  0  0  0  0  0  0  0  0
   -1.3307    2.5143   -0.9539 C   0  0  0  0  0  0  0  0  0  0  0  0
   -0.6928    1.3447   -0.4935 C   0  0  0  0  0  0  0  0  0  0  0  0
   -1.1876    0.0406   -0.9696 C   0  0  0  0  0  0  0  0  0  0  0  0
   -0.4329   -0.7385   -1.8578 C   0  0  0  0  0  0  0  0  0  0  0  0
   -0.8992   -1.9802   -2.2880 C   0  0  0  0  0  0  0  0  0  0  0  0
   -2.1331   -2.4548   -1.8416 C   0  0  0  0  0  0  0  0  0  0  0  0
   -2.9189   -1.6935   -0.9665 C   0  0  0  0  0  0  0  0  0  0  0  0
   -4.2042   -2.1982   -0.5010 C   0  0  0  0  0  0  0  0  0  0  0  0
   -5.4501   -1.6742   -0.2408 C   0  0  0  0  0  0  0  0  0  0  0  0
   -5.8786   -0.3596   -0.4109 C   0  0  0  0  0  0  0  0  0  0  0  0
   -7.2282   -0.2166   -0.0139 C   0  0  0  0  0  0  0  0  0  0  0  0
   -8.0396   -1.2895    0.4954 C   0  0  0  0  0  0  0  0  0  0  0  0
   -7.5898   -2.6206    0.6532 C   0  0  0  0  0  0  0  0  0  0  0  0
   -6.2629   -2.7461    0.2474 C   0  0  0  0  0  0  0  0  0  0  0  0
   -5.4810   -3.8790    0.2463 C   0  0  0  0  0  0  0  0  0  0  0  0
   -5.6520   -5.2865    0.5845 C   0  0  0  0  0  0  0  0  0  0  0  0
   -4.6133   -5.9952    1.2069 C   0  0  0  0  0  0  0  0  0  0  0  0
   -4.7657   -7.3430    1.5412 C   0  0  0  0  0  0  0  0  0  0  0  0
   -5.9586   -8.0009    1.2518 C   0  0  0  0  0  0  0  0  0  0  0  0
   -6.9957   -7.3139    0.6242 C   0  0  0  0  0  0  0  0  0  0  0  0
   -6.8423   -5.9651    0.2905 C   0  0  0  0  0  0  0  0  0  0  0  0
   -4.2268   -3.5426   -0.2098 O   0  0  0  0  0  0  0  0  0  0  0  0
   -2.4325   -0.4506   -0.5363 C   0  0  0  0  0  0  0  0  0  0  0  0
    2.4464    0.0422    0.5444 C   0  0  0  0  0  0  0  0  0  0  0  0
    5.6464   -0.5801    0.3433 C   0  0  0  0  0  0  0  0  0  0  0  0
    5.8059    0.7992    0.4576 C   0  0  0  0  0  0  0  0  0  0  0  0
    7.1227    1.1825    0.1136 C   0  0  0  0  0  0  0  0  0  0  0  0
    9.1375    0.6753   -0.5190 H   0  0  0  0  0  0  0  0  0  0  0  0
    8.7717   -1.8110   -0.6682 H   0  0  0  0  0  0  0  0  0  0  0  0
    5.5054   -5.0076    1.3518 H   0  0  0  0  0  0  0  0  0  0  0  0
    6.2634   -7.3068    0.8718 H   0  0  0  0  0  0  0  0  0  0  0  0
    7.7624   -7.7507   -1.0560 H   0  0  0  0  0  0  0  0  0  0  0  0
    8.4894   -5.8790   -2.5136 H   0  0  0  0  0  0  0  0  0  0  0  0
    7.7284   -3.5819   -2.0588 H   0  0  0  0  0  0  0  0  0  0  0  0
    3.0307   -2.7964    2.3271 H   0  0  0  0  0  0  0  0  0  0  0  0
    0.7074   -2.3547    3.0396 H   0  0  0  0  0  0  0  0  0  0  0  0
   -0.5128   -0.3944    2.1751 H   0  0  0  0  0  0  0  0  0  0  0  0
    1.6393    2.8502    1.4950 H   0  0  0  0  0  0  0  0  0  0  0  0
    1.4158    5.2927    1.4333 H   0  0  0  0  0  0  0  0  0  0  0  0
    1.1850    7.7321    1.3782 H   0  0  0  0  0  0  0  0  0  0  0  0
    0.9494   10.1939    1.3227 H   0  0  0  0  0  0  0  0  0  0  0  0
   -0.2023   12.2030    0.4855 H   0  0  0  0  0  0  0  0  0  0  0  0
   -2.1054   11.9862   -1.0906 H   0  0  0  0  0  0  0  0  0  0  0  0
   -2.8555    9.7587   -1.8291 H   0  0  0  0  0  0  0  0  0  0  0  0
   -2.6236    7.2993   -1.7713 H   0  0  0  0  0  0  0  0  0  0  0  0
   -2.3950    4.8589   -1.7100 H   0  0  0  0  0  0  0  0  0  0  0  0
   -2.1642    2.4167   -1.6491 H   0  0  0  0  0  0  0  0  0  0  0  0
    0.5337   -0.3839   -2.2102 H   0  0  0  0  0  0  0  0  0  0  0  0
   -0.2981   -2.5818   -2.9647 H   0  0  0  0  0  0  0  0  0  0  0  0
   -2.4814   -3.4285   -2.1816 H   0  0  0  0  0  0  0  0  0  0  0  0
   -5.2870    0.4583   -0.7956 H   0  0  0  0  0  0  0  0  0  0  0  0
   -7.6860    0.7703   -0.0954 H   0  0  0  0  0  0  0  0  0  0  0  0
   -9.0676   -1.0579    0.7781 H   0  0  0  0  0  0  0  0  0  0  0  0
   -8.2126   -3.4100    1.0483 H   0  0  0  0  0  0  0  0  0  0  0  0
   -3.6748   -5.4949    1.4391 H   0  0  0  0  0  0  0  0  0  0  0  0
   -3.9516   -7.8762    2.0249 H   0  0  0  0  0  0  0  0  0  0  0  0
   -6.0776   -9.0502    1.5093 H   0  0  0  0  0  0  0  0  0  0  0  0
   -7.9230   -7.8291    0.3873 H   0  0  0  0  0  0  0  0  0  0  0  0
   -7.6568   -5.4577   -0.2202 H   0  0  0  0  0  0  0  0  0  0  0  0
   -3.0100    0.1379    0.1741 H   0  0  0  0  0  0  0  0  0  0  0  0
    2.9156    0.7000   -0.1846 H   0  0  0  0  0  0  0  0  0  0  0  0
    5.0527    1.5040    0.7784 H   0  0  0  0  0  0  0  0  0  0  0  0
    7.3785    2.2416    0.1628 H   0  0  0  0  0  0  0  0  0  0  0  0
  1  2  4  0
  2  3  4  0
  3  4  4  0
  4  5  1  0
  5  6  4  0
  6  7  4  0
  7  8  4  0
  8  9  4  0
  9 10  4  0
  4 11  4  0
 11 12  4  0
 12 13  1  0
 13 14  4  0
 14 15  4  0
 15 16  4  0
 16 17  4  0
 17 18  1  0
 18 19  4  0
 19 20  4  0
 20 21  4  0
 21 22  4  0
 22 23  4  0
 23 24  4  0
 24 25  4  0
 25 26  4  0
 26 27  4  0
 27 28  4  0
 28 29  4  0
 29 30  4  0
 30 31  4  0
 31 32  4  0
 32 33  4  0
 33 34  4  0
 34 35  4  0
 35 36  1  0
 36 37  4  0
 37 38  4  0
 38 39  4  0
 39 40  4  0
 40 41  1  0
 41 42  4  0
 42 43  4  0
 43 44  4  0
 44 45  4  0
 45 46  4  0
 46 47  4  0
 47 48  4  0
 48 49  1  0
 49 50  4  0
 50 51  4  0
 51 52  4  0
 52 53  4  0
 53 54  4  0
 48 55  4  0
 40 56  4  0
 17 57  4  0
 12 58  4  0
 58 59  4  0
 59 60  4  0
 60  1  4  0
 58  3  4  0
 10  5  4  0
 57 13  4  0
 35 18  4  0
 56 36  4  0
 33 20  4  0
 55 41  4  0
 31 22  4  0
 47 42  4  0
 54 49  4  0
 29 24  4  0
  1 61  1  0
  2 62  1  0
  6 63  1  0
  7 64  1  0
  8 65  1  0
  9 66  1  0
 10 67  1  0
 14 68  1  0
 15 69  1  0
 16 70  1  0
 19 71  1  0
 21 72  1  0
 23 73  1  0
 25 74  1  0
 26 75  1  0
 27 76  1  0
 28 77  1  0
 30 78  1  0
 32 79  1  0
 34 80  1  0
 37 81  1  0
 38 82  1  0
 39 83  1  0
 43 84  1  0
 44 85  1  0
 45 86  1  0
 46 87  1  0
 50 88  1  0
 51 89  1  0
 52 90  1  0
 53 91  1  0
 54 92  1  0
 56 93  1  0
 57 94  1  0
 59 95  1  0
 60 96  1  0
M  END
