
     RDKit          3D

 96107  0  0  0  0  0  0  0  0999 V2000
   -0.3162   -3.1750    3.1335 C   0  0  0  0  0  0  0  0  0  0  0  0
   -1.5701   -2.5322    3.0132 C   0  0  0  0  0  0  0  0  0  0  0  0
   -1.9217   -2.3819    1.6730 C   0  0  0  0  0  0  0  0  0  0  0  0
   -3.0769   -1.8435    1.1481 C   0  0  0  0  0  0  0  0  0  0  0  0
   -4.3229   -1.2800    1.6623 C   0  0  0  0  0  0  0  0  0  0  0  0
   -4.8944   -1.7395    2.8567 C   0  0  0  0  0  0  0  0  0  0  0  0
   -6.0831   -1.1865    3.3435 C   0  0  0  0  0  0  0  0  0  0  0  0
   -6.7217   -0.1701    2.6371 C   0  0  0  0  0  0  0  0  0  0  0  0
   -6.1790    0.2870    1.4397 C   0  0  0  0  0  0  0  0  0  0  0  0
   -4.9908   -0.2670    0.9558 C   0  0  0  0  0  0  0  0  0  0  0  0
   -2.9922   -1.8969   -0.2273 O   0  0  0  0  0  0  0  0  0  0  0  0
   -1.7773   -2.4400   -0.5775 C   0  0  0  0  0  0  0  0  0  0  0  0
   -1.5689   -2.5767   -2.0136 C   0  0  0  0  0  0  0  0  0  0  0  0
   -1.9627   -3.8075   -2.5790 C   0  0  0  0  0  0  0  0  0  0  0  0
   -1.9117   -4.0192   -3.9531 C   0  0  0  0  0  0  0  0  0  0  0  0
   -1.4926   -2.9918   -4.7839 C   0  0  0  0  0  0  0  0  0  0  0  0
   -1.0946   -1.7687   -4.2360 C   0  0  0  0  0  0  0  0  0  0  0  0
   -1.0722   -1.5344   -2.8450 C   0  0  0  0  0  0  0  0  0  0  0  0
   -0.5714   -0.2239   -2.3246 C   0  0  0  0  0  0  0  0  0  0  0  0
   -1.4206    0.5432   -1.4963 C   0  0  0  0  0  0  0  0  0  0  0  0
   -1.0181    1.7377   -0.8752 C   0  0  0  0  0  0  0  0  0  0  0  0
   -1.8712    2.4398   -0.0074 C   0  0  0  0  0  0  0  0  0  0  0  0
   -1.4610    3.6237    0.6264 C   0  0  0  0  0  0  0  0  0  0  0  0
   -2.3127    4.3171    1.5029 C   0  0  0  0  0  0  0  0  0  0  0  0
   -1.9025    5.5009    2.1374 C   0  0  0  0  0  0  0  0  0  0  0  0
   -2.7526    6.1944    3.0146 C   0  0  0  0  0  0  0  0  0  0  0  0
   -2.3306    7.3699    3.6377 C   0  0  0  0  0  0  0  0  0  0  0  0
   -1.0542    7.8664    3.3920 C   0  0  0  0  0  0  0  0  0  0  0  0
   -0.1974    7.1880    2.5236 C   0  0  0  0  0  0  0  0  0  0  0  0
   -0.6072    6.0035    1.8889 C   0  0  0  0  0  0  0  0  0  0  0  0
    0.2437    5.3068    1.0143 C   0  0  0  0  0  0  0  0  0  0  0  0
   -0.1670    4.1216    0.3808 C   0  0  0  0  0  0  0  0  0  0  0  0
    0.6834    3.4194   -0.4904 C   0  0  0  0  0  0  0  0  0  0  0  0
    0.2693    2.2325   -1.1198 C   0  0  0  0  0  0  0  0  0  0  0  0
    1.1043    1.5303   -1.9997 C   0  0  0  0  0  0  0  0  0  0  0  0
    0.7115    0.3177   -2.6168 C   0  0  0  0  0  0  0  0  0  0  0  0
    1.6563   -0.2535   -3.6064 C   0  0  0  0  0  0  0  0  0  0  0  0
    1.5523    0.2045   -4.9414 C   0  0  0  0  0  0  0  0  0  0  0  0
    2.3842   -0.2740   -5.9534 C   0  0  0  0  0  0  0  0  0  0  0  0
    3.3630   -1.2078   -5.6497 C   0  0  0  0  0  0  0  0  0  0  0  0
    3.5167   -1.6423   -4.3329 C   0  0  0  0  0  0  0  0  0  0  0  0
    2.6837   -1.1704   -3.2961 C   0  0  0  0  0  0  0  0  0  0  0  0
    2.9889   -1.6032   -1.9372 C   0  0  0  0  0  0  0  0  0  0  0  0
    3.2818   -2.7986   -1.3241 C   0  0  0  0  0  0  0  0  0  0  0  0
    3.2603   -4.0713   -1.8886 C   0  0  0  0  0  0  0  0  0  0  0  0
    3.6667   -5.0412   -0.9445 C   0  0  0  0  0  0  0  0  0  0  0  0
    4.0549   -4.7405    0.4083 C   0  0  0  0  0  0  0  0  0  0  0  0
    4.0694   -3.4393    0.9631 C   0  0  0  0  0  0  0  0  0  0  0  0
    3.6509   -2.4991    0.0245 C   0  0  0  0  0  0  0  0  0  0  0  0
    3.5270   -1.1371    0.1833 C   0  0  0  0  0  0  0  0  0  0  0  0
    3.6853   -0.1755    1.2672 C   0  0  0  0  0  0  0  0  0  0  0  0
    3.2846   -0.4853    2.5736 C   0  0  0  0  0  0  0  0  0  0  0  0
    3.4376    0.4434    3.6072 C   0  0  0  0  0  0  0  0  0  0  0  0
    3.9888    1.6959    3.3447 C   0  0  0  0  0  0  0  0  0  0  0  0
    4.3831    2.0230    2.0493 C   0  0  0  0  0  0  0  0  0  0  0  0
    4.2291    1.0936    1.0174 C   0  0  0  0  0  0  0  0  0  0  0  0
    3.1527   -0.5916   -1.0228 O   0  0  0  0  0  0  0  0  0  0  0  0
   -1.1093   -2.7896    0.5679 C   0  0  0  0  0  0  0  0  0  0  0  0
    0.1198   -3.4271    0.6628 C   0  0  0  0  0  0  0  0  0  0  0  0
    0.4803   -3.6085    2.0171 C   0  0  0  0  0  0  0  0  0  0  0  0
    0.0771   -3.3546    4.1348 H   0  0  0  0  0  0  0  0  0  0  0  0
   -2.1470   -2.2085    3.8666 H   0  0  0  0  0  0  0  0  0  0  0  0
   -4.4357   -2.5516    3.4137 H   0  0  0  0  0  0  0  0  0  0  0  0
   -6.5139   -1.5573    4.2702 H   0  0  0  0  0  0  0  0  0  0  0  0
   -7.6476    0.2567    3.0138 H   0  0  0  0  0  0  0  0  0  0  0  0
   -6.6825    1.0682    0.8763 H   0  0  0  0  0  0  0  0  0  0  0  0
   -4.5873    0.0976    0.0139 H   0  0  0  0  0  0  0  0  0  0  0  0
   -2.3363   -4.6029   -1.9360 H   0  0  0  0  0  0  0  0  0  0  0  0
   -2.2251   -4.9715   -4.3712 H   0  0  0  0  0  0  0  0  0  0  0  0
   -1.4774   -3.1317   -5.8614 H   0  0  0  0  0  0  0  0  0  0  0  0
   -0.8111   -0.9795   -4.9257 H   0  0  0  0  0  0  0  0  0  0  0  0
   -2.4354    0.1935   -1.3226 H   0  0  0  0  0  0  0  0  0  0  0  0
   -2.8677    2.0496    0.1888 H   0  0  0  0  0  0  0  0  0  0  0  0
   -3.3088    3.9232    1.6977 H   0  0  0  0  0  0  0  0  0  0  0  0
   -3.7536    5.8214    3.2198 H   0  0  0  0  0  0  0  0  0  0  0  0
   -2.9987    7.8964    4.3143 H   0  0  0  0  0  0  0  0  0  0  0  0
   -0.7235    8.7815    3.8764 H   0  0  0  0  0  0  0  0  0  0  0  0
    0.7966    7.5922    2.3458 H   0  0  0  0  0  0  0  0  0  0  0  0
    1.2442    5.6907    0.8247 H   0  0  0  0  0  0  0  0  0  0  0  0
    1.6872    3.7962   -0.6770 H   0  0  0  0  0  0  0  0  0  0  0  0
    2.0979    1.9240   -2.2139 H   0  0  0  0  0  0  0  0  0  0  0  0
    0.7953    0.9463   -5.1943 H   0  0  0  0  0  0  0  0  0  0  0  0
    2.2690    0.0894   -6.9710 H   0  0  0  0  0  0  0  0  0  0  0  0
    4.0244   -1.5809   -6.4269 H   0  0  0  0  0  0  0  0  0  0  0  0
    4.3256   -2.3360   -4.1097 H   0  0  0  0  0  0  0  0  0  0  0  0
    2.9702   -4.3108   -2.9017 H   0  0  0  0  0  0  0  0  0  0  0  0
    3.6940   -6.0854   -1.2596 H   0  0  0  0  0  0  0  0  0  0  0  0
    4.3584   -5.5735    1.0437 H   0  0  0  0  0  0  0  0  0  0  0  0
    4.3730   -3.2313    1.9788 H   0  0  0  0  0  0  0  0  0  0  0  0
    2.8225   -1.4435    2.7951 H   0  0  0  0  0  0  0  0  0  0  0  0
    3.1136    0.1912    4.6136 H   0  0  0  0  0  0  0  0  0  0  0  0
    4.1014    2.4198    4.1473 H   0  0  0  0  0  0  0  0  0  0  0  0
    4.8058    3.0016    1.8387 H   0  0  0  0  0  0  0  0  0  0  0  0
    4.5368    1.3638    0.0095 H   0  0  0  0  0  0  0  0  0  0  0  0
    0.7269   -3.7490   -0.1691 H   0  0  0  0  0  0  0  0  0  0  0  0
    1.4267   -4.1044    2.2317 H   0  0  0  0  0  0  0  0  0  0  0  0
  1  2  4  0
  2  3  4  0
  3  4  4  0
  4  5  1  0
  5  6  4  0
  6  7  4  0
  7  8  4  0
  8  9  4  0
  9 10  4  0
  4 11  4  0
 11 12  4  0
 12 13  1  0
 13 14  4  0
 14 15  4  0
 15 16  4  0
 16 17  4  0
 17 18  4  0
 18 19  1  0
 19 20  4  0
 20 21  4  0
 21 22  4  0
 22 23  4  0
 23 24  4  0
 24 25  4  0
 25 26  4  0
 26 27  4  0
 27 28  4  0
 28 29  4  0
 29 30  4  0
 30 31  4  0
 31 32  4  0
 32 33  4  0
 33 34  4  0
 34 35  4  0
 35 36  4  0
 36 37  1  0
 37 38  4  0
 38 39  4  0
 39 40  4  0
 40 41  4  0
 41 42  4  0
 42 43  1  0
 43 44  4  0
 44 45  4  0
 45 46  4  0
 46 47  4  0
 47 48  4  0
 48 49  4  0
 49 50  4  0
 50 51  1  0
 51 52  4  0
 52 53  4  0
 53 54  4  0
 54 55  4  0
 55 56  4  0
 50 57  4  0
 12 58  4  0
 58 59  4  0
 59 60  4  0
 60  1  4  0
 58  3  4  0
 10  5  4  0
 18 13  4  0
 36 19  4  0
 42 37  4  0
 57 43  4  0
 34 21  4  0
 49 44  4  0
 56 51  4  0
 32 23  4  0
 30 25  4  0
  1 61  1  0
  2 62  1  0
  6 63  1  0
  7 64  1  0
  8 65  1  0
  9 66  1  0
 10 67  1  0
 14 68  1  0
 15 69  1  0
 16 70  1  0
 17 71  1  0
 20 72  1  0
 22 73  1  0
 24 74  1  0
 26 75  1  0
 27 76  1  0
 28 77  1  0
 29 78  1  0
 31 79  1  0
 33 80  1  0
 35 81  1  0
 38 82  1  0
 39 83  1  0
 40 84  1  0
 41 85  1  0
 45 86  1  0
 46 87  1  0
 47 88  1  0
 48 89  1  0
 52 90  1  0
 53 91  1  0
 54 92  1  0
 55 93  1  0
 56 94  1  0
 59 95  1  0
 60 96  1  0
M  END
