
     RDKit          3D

 90103  0  0  0  0  0  0  0  0999 V2000
   -6.8700   -8.3136   -2.0545 C   0  0  0  0  0  0  0  0  0  0  0  0
   -7.1883   -7.5621   -3.1779 C   0  0  0  0  0  0  0  0  0  0  0  0
   -6.7149   -6.2536   -3.2864 C   0  0  0  0  0  0  0  0  0  0  0  0
   -5.9292   -5.6835   -2.2915 C   0  0  0  0  0  0  0  0  0  0  0  0
   -5.4901   -4.4184   -2.4290 N   0  0  0  0  0  0  0  0  0  0  0  0
   -4.7336   -3.9120   -1.4401 C   0  0  0  0  0  0  0  0  0  0  0  0
   -4.2576   -2.6147   -1.5372 C   0  0  0  0  0  0  0  0  0  0  0  0
   -3.4699   -2.0474   -0.5483 C   0  0  0  0  0  0  0  0  0  0  0  0
   -3.0234   -0.7876   -0.6935 N   0  0  0  0  0  0  0  0  0  0  0  0
   -2.2594   -0.2802    0.2918 C   0  0  0  0  0  0  0  0  0  0  0  0
   -1.7365    1.0029    0.1680 C   0  0  0  0  0  0  0  0  0  0  0  0
   -0.9183    1.5738    1.1566 C   0  0  0  0  0  0  0  0  0  0  0  0
   -0.2784    2.8882    0.9396 C   0  0  0  0  0  0  0  0  0  0  0  0
   -1.0938    4.0273    0.7841 C   0  0  0  0  0  0  0  0  0  0  0  0
   -0.5527    5.3064    0.5700 C   0  0  0  0  0  0  0  0  0  0  0  0
   -1.3735    6.4376    0.4209 C   0  0  0  0  0  0  0  0  0  0  0  0
   -0.8302    7.7160    0.2069 C   0  0  0  0  0  0  0  0  0  0  0  0
   -1.6510    8.8471    0.0588 C   0  0  0  0  0  0  0  0  0  0  0  0
   -1.1067   10.1243   -0.1556 C   0  0  0  0  0  0  0  0  0  0  0  0
   -1.9268   11.2550   -0.3040 C   0  0  0  0  0  0  0  0  0  0  0  0
   -1.3710   12.5175   -0.5165 C   0  0  0  0  0  0  0  0  0  0  0  0
    0.0108   12.6658   -0.5833 C   0  0  0  0  0  0  0  0  0  0  0  0
    0.8390   11.5518   -0.4377 C   0  0  0  0  0  0  0  0  0  0  0  0
    0.2947   10.2747   -0.2234 C   0  0  0  0  0  0  0  0  0  0  0  0
    1.1144    9.1437   -0.0750 C   0  0  0  0  0  0  0  0  0  0  0  0
    0.5686    7.8666    0.1392 C   0  0  0  0  0  0  0  0  0  0  0  0
    1.3882    6.7355    0.2878 C   0  0  0  0  0  0  0  0  0  0  0  0
    0.8439    5.4583    0.5039 C   0  0  0  0  0  0  0  0  0  0  0  0
    1.6650    4.3296    0.6559 C   0  0  0  0  0  0  0  0  0  0  0  0
    1.1320    3.0437    0.8729 C   0  0  0  0  0  0  0  0  0  0  0  0
    2.0603    1.9072    1.0351 C   0  0  0  0  0  0  0  0  0  0  0  0
    2.0693    0.8349    0.1286 C   0  0  0  0  0  0  0  0  0  0  0  0
    2.8414   -0.3015    0.3402 C   0  0  0  0  0  0  0  0  0  0  0  0
    2.7631   -1.3311   -0.5220 N   0  0  0  0  0  0  0  0  0  0  0  0
    3.4699   -2.4379   -0.2371 C   0  0  0  0  0  0  0  0  0  0  0  0
    3.3778   -3.5426   -1.0678 C   0  0  0  0  0  0  0  0  0  0  0  0
    4.0607   -4.7176   -0.8012 C   0  0  0  0  0  0  0  0  0  0  0  0
    3.9258   -5.7679   -1.6288 N   0  0  0  0  0  0  0  0  0  0  0  0
    4.6084   -6.8885   -1.3284 C   0  0  0  0  0  0  0  0  0  0  0  0
    4.5044   -8.0019   -2.1540 C   0  0  0  0  0  0  0  0  0  0  0  0
    5.1966   -9.1810   -1.8744 C   0  0  0  0  0  0  0  0  0  0  0  0
    6.0073   -9.2482   -0.7490 C   0  0  0  0  0  0  0  0  0  0  0  0
    6.1180   -8.1355    0.0861 C   0  0  0  0  0  0  0  0  0  0  0  0
    5.4326   -6.9568   -0.1842 C   0  0  0  0  0  0  0  0  0  0  0  0
    5.5631   -5.9036    0.6439 N   0  0  0  0  0  0  0  0  0  0  0  0
    4.8828   -4.7857    0.3397 C   0  0  0  0  0  0  0  0  0  0  0  0
    4.9860   -3.6762    1.1629 C   0  0  0  0  0  0  0  0  0  0  0  0
    4.2927   -2.5055    0.9029 C   0  0  0  0  0  0  0  0  0  0  0  0
    4.4036   -1.4642    1.7460 N   0  0  0  0  0  0  0  0  0  0  0  0
    3.6707   -0.3688    1.4785 C   0  0  0  0  0  0  0  0  0  0  0  0
    3.7099    0.7094    2.3494 C   0  0  0  0  0  0  0  0  0  0  0  0
    2.9153    1.8382    2.1403 C   0  0  0  0  0  0  0  0  0  0  0  0
   -0.6872    0.8321    2.3199 C   0  0  0  0  0  0  0  0  0  0  0  0
   -1.1959   -0.4623    2.4477 C   0  0  0  0  0  0  0  0  0  0  0  0
   -1.9582   -1.0385    1.4427 C   0  0  0  0  0  0  0  0  0  0  0  0
   -2.3967   -2.3025    1.5824 N   0  0  0  0  0  0  0  0  0  0  0  0
   -3.1495   -2.8101    0.5915 C   0  0  0  0  0  0  0  0  0  0  0  0
   -3.6270   -4.1070    0.6889 C   0  0  0  0  0  0  0  0  0  0  0  0
   -4.4110   -4.6754   -0.3018 C   0  0  0  0  0  0  0  0  0  0  0  0
   -4.8482   -5.9386   -0.1611 N   0  0  0  0  0  0  0  0  0  0  0  0
   -5.6060   -6.4483   -1.1495 C   0  0  0  0  0  0  0  0  0  0  0  0
   -6.0818   -7.7501   -1.0504 C   0  0  0  0  0  0  0  0  0  0  0  0
   -7.2308   -9.3339   -1.9548 H   0  0  0  0  0  0  0  0  0  0  0  0
   -7.8014   -7.9874   -3.9685 H   0  0  0  0  0  0  0  0  0  0  0  0
   -6.9627   -5.6633   -4.1653 H   0  0  0  0  0  0  0  0  0  0  0  0
   -4.5069   -2.0261   -2.4166 H   0  0  0  0  0  0  0  0  0  0  0  0
   -1.9477    1.5551   -0.7465 H   0  0  0  0  0  0  0  0  0  0  0  0
   -2.1761    3.9124    0.8400 H   0  0  0  0  0  0  0  0  0  0  0  0
   -2.4551    6.3227    0.4722 H   0  0  0  0  0  0  0  0  0  0  0  0
   -2.7323    8.7332    0.1109 H   0  0  0  0  0  0  0  0  0  0  0  0
   -3.0092   11.1598   -0.2548 H   0  0  0  0  0  0  0  0  0  0  0  0
   -2.0177   13.3836   -0.6296 H   0  0  0  0  0  0  0  0  0  0  0  0
    0.4458   13.6480   -0.7487 H   0  0  0  0  0  0  0  0  0  0  0  0
    1.9167   11.6886   -0.4930 H   0  0  0  0  0  0  0  0  0  0  0  0
    2.1955    9.2604   -0.1274 H   0  0  0  0  0  0  0  0  0  0  0  0
    2.4694    6.8520    0.2343 H   0  0  0  0  0  0  0  0  0  0  0  0
    2.7465    4.4504    0.5980 H   0  0  0  0  0  0  0  0  0  0  0  0
    1.4256    0.8619   -0.7490 H   0  0  0  0  0  0  0  0  0  0  0  0
    2.7397   -3.4900   -1.9464 H   0  0  0  0  0  0  0  0  0  0  0  0
    3.8688   -7.9472   -3.0347 H   0  0  0  0  0  0  0  0  0  0  0  0
    5.1000  -10.0394   -2.5345 H   0  0  0  0  0  0  0  0  0  0  0  0
    6.5528  -10.1597   -0.5178 H   0  0  0  0  0  0  0  0  0  0  0  0
    6.7520   -8.1855    0.9680 H   0  0  0  0  0  0  0  0  0  0  0  0
    5.6185   -3.7306    2.0452 H   0  0  0  0  0  0  0  0  0  0  0  0
    4.3497    0.6560    3.2266 H   0  0  0  0  0  0  0  0  0  0  0  0
    2.9422    2.6459    2.8691 H   0  0  0  0  0  0  0  0  0  0  0  0
   -0.0764    1.2390    3.1234 H   0  0  0  0  0  0  0  0  0  0  0  0
   -0.9778   -1.0403    3.3425 H   0  0  0  0  0  0  0  0  0  0  0  0
   -3.3774   -4.6962    1.5676 H   0  0  0  0  0  0  0  0  0  0  0  0
   -5.8313   -8.3368   -0.1698 H   0  0  0  0  0  0  0  0  0  0  0  0
  1  2  4  0
  2  3  4  0
  3  4  4  0
  4  5  4  0
  5  6  4  0
  6  7  4  0
  7  8  4  0
  8  9  4  0
  9 10  4  0
 10 11  4  0
 11 12  4  0
 12 13  1  0
 13 14  4  0
 14 15  4  0
 15 16  4  0
 16 17  4  0
 17 18  4  0
 18 19  4  0
 19 20  4  0
 20 21  4  0
 21 22  4  0
 22 23  4  0
 23 24  4  0
 24 25  4  0
 25 26  4  0
 26 27  4  0
 27 28  4  0
 28 29  4  0
 29 30  4  0
 30 31  1  0
 31 32  4  0
 32 33  4  0
 33 34  4  0
 34 35  4  0
 35 36  4  0
 36 37  4  0
 37 38  4  0
 38 39  4  0
 39 40  4  0
 40 41  4  0
 41 42  4  0
 42 43  4  0
 43 44  4  0
 44 45  4  0
 45 46  4  0
 46 47  4  0
 47 48  4  0
 48 49  4  0
 49 50  4  0
 50 51  4  0
 51 52  4  0
 12 53  4  0
 53 54  4  0
 54 55  4  0
 55 56  4  0
 56 57  4  0
 57 58  4  0
 58 59  4  0
 59 60  4  0
 60 61  4  0
 61 62  4  0
 62  1  4  0
 61  4  4  0
 59  6  4  0
 57  8  4  0
 55 10  4  0
 30 13  4  0
 52 31  4  0
 28 15  4  0
 50 33  4  0
 26 17  4  0
 48 35  4  0
 24 19  4  0
 46 37  4  0
 44 39  4  0
  1 63  1  0
  2 64  1  0
  3 65  1  0
  7 66  1  0
 11 67  1  0
 14 68  1  0
 16 69  1  0
 18 70  1  0
 20 71  1  0
 21 72  1  0
 22 73  1  0
 23 74  1  0
 25 75  1  0
 27 76  1  0
 29 77  1  0
 32 78  1  0
 36 79  1  0
 40 80  1  0
 41 81  1  0
 42 82  1  0
 43 83  1  0
 47 84  1  0
 51 85  1  0
 52 86  1  0
 53 87  1  0
 54 88  1  0
 58 89  1  0
 62 90  1  0
M  END
