
     RDKit          3D

 94107  0  0  0  0  0  0  0  0999 V2000
    2.1049   -7.5748   -2.1605 C   0  0  0  0  0  0  0  0  0  0  0  0
    1.6665   -6.2673   -1.9645 C   0  0  0  0  0  0  0  0  0  0  0  0
    2.3024   -5.4397   -1.0219 C   0  0  0  0  0  0  0  0  0  0  0  0
    1.8895   -4.1222   -0.8003 C   0  0  0  0  0  0  0  0  0  0  0  0
    2.5502   -3.3319    0.1446 C   0  0  0  0  0  0  0  0  0  0  0  0
    2.1682   -2.0020    0.3908 C   0  0  0  0  0  0  0  0  0  0  0  0
    2.8150   -1.2252    1.3351 C   0  0  0  0  0  0  0  0  0  0  0  0
    2.4122    0.0374    1.5284 N   0  0  0  0  0  0  0  0  0  0  0  0
    2.9927    0.8045    2.4737 C   0  0  0  0  0  0  0  0  0  0  0  0
    2.5582    2.1230    2.7045 C   0  0  0  0  0  0  0  0  0  0  0  0
    1.4505    2.7270    1.9243 C   0  0  0  0  0  0  0  0  0  0  0  0
    1.7785    3.7266    0.9819 C   0  0  0  0  0  0  0  0  0  0  0  0
    0.8037    4.3717    0.2051 C   0  0  0  0  0  0  0  0  0  0  0  0
    1.1454    5.3613   -0.7325 C   0  0  0  0  0  0  0  0  0  0  0  0
    0.1668    6.0055   -1.5079 C   0  0  0  0  0  0  0  0  0  0  0  0
    0.5079    6.9950   -2.4457 C   0  0  0  0  0  0  0  0  0  0  0  0
   -0.4714    7.6391   -3.2202 C   0  0  0  0  0  0  0  0  0  0  0  0
   -0.1316    8.6291   -4.1576 C   0  0  0  0  0  0  0  0  0  0  0  0
   -1.1166    9.2594   -4.9195 C   0  0  0  0  0  0  0  0  0  0  0  0
   -2.4529    8.9085   -4.7543 C   0  0  0  0  0  0  0  0  0  0  0  0
   -2.8063    7.9268   -3.8272 C   0  0  0  0  0  0  0  0  0  0  0  0
   -1.8267    7.2835   -3.0528 C   0  0  0  0  0  0  0  0  0  0  0  0
   -2.1661    6.2936   -2.1159 C   0  0  0  0  0  0  0  0  0  0  0  0
   -1.1858    5.6503   -1.3415 C   0  0  0  0  0  0  0  0  0  0  0  0
   -1.5247    4.6588   -0.4054 C   0  0  0  0  0  0  0  0  0  0  0  0
   -0.5447    4.0160    0.3694 C   0  0  0  0  0  0  0  0  0  0  0  0
   -0.8805    3.0212    1.3019 C   0  0  0  0  0  0  0  0  0  0  0  0
    0.0909    2.3565    2.0830 C   0  0  0  0  0  0  0  0  0  0  0  0
   -0.3607    1.3108    3.0391 C   0  0  0  0  0  0  0  0  0  0  0  0
   -1.0274    0.1462    2.5919 C   0  0  0  0  0  0  0  0  0  0  0  0
   -1.3077   -0.0569    1.2807 N   0  0  0  0  0  0  0  0  0  0  0  0
   -1.9428   -1.1672    0.8793 C   0  0  0  0  0  0  0  0  0  0  0  0
   -2.2185   -1.3429   -0.4670 C   0  0  0  0  0  0  0  0  0  0  0  0
   -2.8865   -2.4866   -0.9429 C   0  0  0  0  0  0  0  0  0  0  0  0
   -3.1672   -2.6695   -2.3017 C   0  0  0  0  0  0  0  0  0  0  0  0
   -3.8340   -3.8215   -2.7321 C   0  0  0  0  0  0  0  0  0  0  0  0
   -4.1337   -4.0427   -4.0885 C   0  0  0  0  0  0  0  0  0  0  0  0
   -4.7991   -5.2017   -4.4818 C   0  0  0  0  0  0  0  0  0  0  0  0
   -5.1658   -6.1402   -3.5244 C   0  0  0  0  0  0  0  0  0  0  0  0
   -4.8649   -5.9146   -2.1775 C   0  0  0  0  0  0  0  0  0  0  0  0
   -4.2027   -4.7684   -1.7577 C   0  0  0  0  0  0  0  0  0  0  0  0
   -3.9370   -4.5994   -0.4497 N   0  0  0  0  0  0  0  0  0  0  0  0
   -3.2954   -3.4890   -0.0489 C   0  0  0  0  0  0  0  0  0  0  0  0
   -3.0206   -3.3099    1.2977 C   0  0  0  0  0  0  0  0  0  0  0  0
   -2.3514   -2.1644    1.7716 C   0  0  0  0  0  0  0  0  0  0  0  0
   -2.0739   -1.9686    3.1273 C   0  0  0  0  0  0  0  0  0  0  0  0
   -1.4125   -0.8112    3.5563 C   0  0  0  0  0  0  0  0  0  0  0  0
   -1.1486   -0.6110    4.9200 C   0  0  0  0  0  0  0  0  0  0  0  0
   -0.5153    0.5461    5.3519 C   0  0  0  0  0  0  0  0  0  0  0  0
   -0.1322    1.5016    4.4188 C   0  0  0  0  0  0  0  0  0  0  0  0
    3.1945    2.9117    3.6874 C   0  0  0  0  0  0  0  0  0  0  0  0
    4.2416    2.4046    4.4478 C   0  0  0  0  0  0  0  0  0  0  0  0
    4.6713    1.1019    4.2319 C   0  0  0  0  0  0  0  0  0  0  0  0
    4.0577    0.3039    3.2534 C   0  0  0  0  0  0  0  0  0  0  0  0
    4.4908   -1.0081    3.0267 C   0  0  0  0  0  0  0  0  0  0  0  0
    3.8676   -1.7998    2.0578 C   0  0  0  0  0  0  0  0  0  0  0  0
    4.2612   -3.1279    1.8024 C   0  0  0  0  0  0  0  0  0  0  0  0
    3.6182   -3.9069    0.8534 C   0  0  0  0  0  0  0  0  0  0  0  0
    4.0255   -5.1705    0.6483 N   0  0  0  0  0  0  0  0  0  0  0  0
    3.3877   -5.9234   -0.2657 C   0  0  0  0  0  0  0  0  0  0  0  0
    3.8036   -7.2303   -0.4815 C   0  0  0  0  0  0  0  0  0  0  0  0
    3.1759   -8.0577   -1.4176 C   0  0  0  0  0  0  0  0  0  0  0  0
    1.6127   -8.2134   -2.8896 H   0  0  0  0  0  0  0  0  0  0  0  0
    0.8280   -5.8962   -2.5494 H   0  0  0  0  0  0  0  0  0  0  0  0
    1.0531   -3.7100   -1.3602 H   0  0  0  0  0  0  0  0  0  0  0  0
    1.3410   -1.5541   -0.1571 H   0  0  0  0  0  0  0  0  0  0  0  0
    2.8260    3.9941    0.8473 H   0  0  0  0  0  0  0  0  0  0  0  0
    2.1916    5.6321   -0.8618 H   0  0  0  0  0  0  0  0  0  0  0  0
    1.5535    7.2682   -2.5751 H   0  0  0  0  0  0  0  0  0  0  0  0
    0.9078    8.9155   -4.3010 H   0  0  0  0  0  0  0  0  0  0  0  0
   -0.8394   10.0232   -5.6413 H   0  0  0  0  0  0  0  0  0  0  0  0
   -3.2216    9.3979   -5.3466 H   0  0  0  0  0  0  0  0  0  0  0  0
   -3.8562    7.6663   -3.7128 H   0  0  0  0  0  0  0  0  0  0  0  0
   -3.2110    6.0179   -1.9863 H   0  0  0  0  0  0  0  0  0  0  0  0
   -2.5688    4.3783   -0.2782 H   0  0  0  0  0  0  0  0  0  0  0  0
   -1.9263    2.7382    1.4198 H   0  0  0  0  0  0  0  0  0  0  0  0
   -1.9044   -0.5629   -1.1581 H   0  0  0  0  0  0  0  0  0  0  0  0
   -2.8645   -1.9148   -3.0240 H   0  0  0  0  0  0  0  0  0  0  0  0
   -3.8497   -3.3129   -4.8433 H   0  0  0  0  0  0  0  0  0  0  0  0
   -5.0299   -5.3710   -5.5304 H   0  0  0  0  0  0  0  0  0  0  0  0
   -5.6853   -7.0486   -3.8183 H   0  0  0  0  0  0  0  0  0  0  0  0
   -5.1551   -6.6539   -1.4346 H   0  0  0  0  0  0  0  0  0  0  0  0
   -3.3369   -4.0843    1.9932 H   0  0  0  0  0  0  0  0  0  0  0  0
   -2.3804   -2.7192    3.8529 H   0  0  0  0  0  0  0  0  0  0  0  0
   -1.4453   -1.3547    5.6565 H   0  0  0  0  0  0  0  0  0  0  0  0
   -0.3196    0.7040    6.4088 H   0  0  0  0  0  0  0  0  0  0  0  0
    0.3546    2.4098    4.7679 H   0  0  0  0  0  0  0  0  0  0  0  0
    2.8599    3.9333    3.8607 H   0  0  0  0  0  0  0  0  0  0  0  0
    4.7194    3.0222    5.2035 H   0  0  0  0  0  0  0  0  0  0  0  0
    5.4908    0.7100    4.8303 H   0  0  0  0  0  0  0  0  0  0  0  0
    5.3104   -1.4188    3.6114 H   0  0  0  0  0  0  0  0  0  0  0  0
    5.0841   -3.5717    2.3588 H   0  0  0  0  0  0  0  0  0  0  0  0
    4.6403   -7.6162    0.0961 H   0  0  0  0  0  0  0  0  0  0  0  0
    3.5274   -9.0761   -1.5611 H   0  0  0  0  0  0  0  0  0  0  0  0
  1  2  4  0
  2  3  4  0
  3  4  4  0
  4  5  4  0
  5  6  4  0
  6  7  4  0
  7  8  4  0
  8  9  4  0
  9 10  4  0
 10 11  1  0
 11 12  4  0
 12 13  4  0
 13 14  4  0
 14 15  4  0
 15 16  4  0
 16 17  4  0
 17 18  4  0
 18 19  4  0
 19 20  4  0
 20 21  4  0
 21 22  4  0
 22 23  4  0
 23 24  4  0
 24 25  4  0
 25 26  4  0
 26 27  4  0
 27 28  4  0
 28 29  1  0
 29 30  4  0
 30 31  4  0
 31 32  4  0
 32 33  4  0
 33 34  4  0
 34 35  4  0
 35 36  4  0
 36 37  4  0
 37 38  4  0
 38 39  4  0
 39 40  4  0
 40 41  4  0
 41 42  4  0
 42 43  4  0
 43 44  4  0
 44 45  4  0
 45 46  4  0
 46 47  4  0
 47 48  4  0
 48 49  4  0
 49 50  4  0
 10 51  4  0
 51 52  4  0
 52 53  4  0
 53 54  4  0
 54 55  4  0
 55 56  4  0
 56 57  4  0
 57 58  4  0
 58 59  4  0
 59 60  4  0
 60 61  4  0
 61 62  4  0
 62  1  4  0
 60  3  4  0
 58  5  4  0
 56  7  4  0
 54  9  4  0
 28 11  4  0
 50 29  4  0
 26 13  4  0
 47 30  4  0
 24 15  4  0
 45 32  4  0
 22 17  4  0
 43 34  4  0
 41 36  4  0
  1 63  1  0
  2 64  1  0
  4 65  1  0
  6 66  1  0
 12 67  1  0
 14 68  1  0
 16 69  1  0
 18 70  1  0
 19 71  1  0
 20 72  1  0
 21 73  1  0
 23 74  1  0
 25 75  1  0
 27 76  1  0
 33 77  1  0
 35 78  1  0
 37 79  1  0
 38 80  1  0
 39 81  1  0
 40 82  1  0
 44 83  1  0
 46 84  1  0
 48 85  1  0
 49 86  1  0
 50 87  1  0
 51 88  1  0
 52 89  1  0
 53 90  1  0
 55 91  1  0
 57 92  1  0
 61 93  1  0
 62 94  1  0
M  END
