
     RDKit          3D

 94107  0  0  0  0  0  0  0  0999 V2000
   -1.4651   -2.4063    6.3879 C   0  0  0  0  0  0  0  0  0  0  0  0
   -2.8424   -2.5710    6.4754 C   0  0  0  0  0  0  0  0  0  0  0  0
   -3.6369   -2.3883    5.3390 C   0  0  0  0  0  0  0  0  0  0  0  0
   -3.0883   -2.0469    4.1088 C   0  0  0  0  0  0  0  0  0  0  0  0
   -3.8888   -1.8885    3.0433 N   0  0  0  0  0  0  0  0  0  0  0  0
   -3.3560   -1.5616    1.8527 C   0  0  0  0  0  0  0  0  0  0  0  0
   -4.2226   -1.4011    0.7915 C   0  0  0  0  0  0  0  0  0  0  0  0
   -3.7751   -1.0829   -0.4974 C   0  0  0  0  0  0  0  0  0  0  0  0
   -4.6876   -0.9277   -1.5484 C   0  0  0  0  0  0  0  0  0  0  0  0
   -4.2383   -0.6144   -2.8330 C   0  0  0  0  0  0  0  0  0  0  0  0
   -5.1211   -0.4304   -3.9131 C   0  0  0  0  0  0  0  0  0  0  0  0
   -4.6273   -0.1128   -5.1769 C   0  0  0  0  0  0  0  0  0  0  0  0
   -3.2560    0.0156   -5.3646 C   0  0  0  0  0  0  0  0  0  0  0  0
   -2.3875   -0.1769   -4.2867 C   0  0  0  0  0  0  0  0  0  0  0  0
   -2.8545   -0.4856   -3.0176 C   0  0  0  0  0  0  0  0  0  0  0  0
   -1.9792   -0.6426   -2.0116 N   0  0  0  0  0  0  0  0  0  0  0  0
   -2.4063   -0.9092   -0.7591 C   0  0  0  0  0  0  0  0  0  0  0  0
   -1.5042   -1.0156    0.3193 C   0  0  0  0  0  0  0  0  0  0  0  0
   -0.0506   -0.7401    0.1025 C   0  0  0  0  0  0  0  0  0  0  0  0
    0.8535   -1.8208    0.2088 C   0  0  0  0  0  0  0  0  0  0  0  0
    2.2436   -1.6436    0.1358 C   0  0  0  0  0  0  0  0  0  0  0  0
    3.1301   -2.7240    0.2815 C   0  0  0  0  0  0  0  0  0  0  0  0
    4.5220   -2.5410    0.2321 C   0  0  0  0  0  0  0  0  0  0  0  0
    5.4098   -3.6186    0.3911 C   0  0  0  0  0  0  0  0  0  0  0  0
    6.8016   -3.4332    0.3488 C   0  0  0  0  0  0  0  0  0  0  0  0
    7.6905   -4.5089    0.5131 C   0  0  0  0  0  0  0  0  0  0  0  0
    9.0705   -4.3072    0.4692 C   0  0  0  0  0  0  0  0  0  0  0  0
    9.5795   -3.0293    0.2599 C   0  0  0  0  0  0  0  0  0  0  0  0
    8.7094   -1.9507    0.0946 C   0  0  0  0  0  0  0  0  0  0  0  0
    7.3180   -2.1370    0.1372 C   0  0  0  0  0  0  0  0  0  0  0  0
    6.4294   -1.0614   -0.0258 C   0  0  0  0  0  0  0  0  0  0  0  0
    5.0379   -1.2475    0.0213 C   0  0  0  0  0  0  0  0  0  0  0  0
    4.1496   -0.1706   -0.1361 C   0  0  0  0  0  0  0  0  0  0  0  0
    2.7582   -0.3537   -0.0758 C   0  0  0  0  0  0  0  0  0  0  0  0
    1.8690    0.7216   -0.2315 C   0  0  0  0  0  0  0  0  0  0  0  0
    0.4684    0.5586   -0.1624 C   0  0  0  0  0  0  0  0  0  0  0  0
   -0.3986    1.7487   -0.4235 C   0  0  0  0  0  0  0  0  0  0  0  0
   -0.4305    2.2884   -1.7337 C   0  0  0  0  0  0  0  0  0  0  0  0
    0.4060    1.8547   -2.7079 N   0  0  0  0  0  0  0  0  0  0  0  0
    0.3545    2.3745   -3.9444 C   0  0  0  0  0  0  0  0  0  0  0  0
    1.2184    1.8975   -4.9209 C   0  0  0  0  0  0  0  0  0  0  0  0
    1.2012    2.3979   -6.2261 C   0  0  0  0  0  0  0  0  0  0  0  0
    0.3028    3.4013   -6.5698 C   0  0  0  0  0  0  0  0  0  0  0  0
   -0.5730    3.8978   -5.6068 C   0  0  0  0  0  0  0  0  0  0  0  0
   -0.5509    3.3855   -4.2957 C   0  0  0  0  0  0  0  0  0  0  0  0
   -1.4115    3.8488   -3.2984 C   0  0  0  0  0  0  0  0  0  0  0  0
   -1.3550    3.3104   -2.0060 C   0  0  0  0  0  0  0  0  0  0  0  0
   -2.2073    3.7872   -1.0033 C   0  0  0  0  0  0  0  0  0  0  0  0
   -2.1431    3.3234    0.2937 C   0  0  0  0  0  0  0  0  0  0  0  0
   -2.9779    3.8757    1.1888 N   0  0  0  0  0  0  0  0  0  0  0  0
   -2.9297    3.4761    2.4704 C   0  0  0  0  0  0  0  0  0  0  0  0
   -3.8032    4.0294    3.3981 C   0  0  0  0  0  0  0  0  0  0  0  0
   -3.7889    3.6439    4.7420 C   0  0  0  0  0  0  0  0  0  0  0  0
   -2.8789    2.6885    5.1787 C   0  0  0  0  0  0  0  0  0  0  0  0
   -1.9884    2.1243    4.2691 C   0  0  0  0  0  0  0  0  0  0  0  0
   -2.0135    2.5123    2.9171 C   0  0  0  0  0  0  0  0  0  0  0  0
   -1.1453    1.9583    1.9699 C   0  0  0  0  0  0  0  0  0  0  0  0
   -1.2105    2.3211    0.6092 C   0  0  0  0  0  0  0  0  0  0  0  0
   -1.9817   -1.3703    1.6347 C   0  0  0  0  0  0  0  0  0  0  0  0
   -1.1638   -1.5368    2.7784 C   0  0  0  0  0  0  0  0  0  0  0  0
   -1.6993   -1.8809    4.0263 C   0  0  0  0  0  0  0  0  0  0  0  0
   -0.8919   -2.0593    5.1658 C   0  0  0  0  0  0  0  0  0  0  0  0
   -0.8404   -2.5509    7.2660 H   0  0  0  0  0  0  0  0  0  0  0  0
   -3.3035   -2.8438    7.4215 H   0  0  0  0  0  0  0  0  0  0  0  0
   -4.7141   -2.5181    5.4119 H   0  0  0  0  0  0  0  0  0  0  0  0
   -5.2866   -1.5337    0.9808 H   0  0  0  0  0  0  0  0  0  0  0  0
   -5.7534   -1.0433   -1.3647 H   0  0  0  0  0  0  0  0  0  0  0  0
   -6.1948   -0.5288   -3.7723 H   0  0  0  0  0  0  0  0  0  0  0  0
   -5.3087    0.0363   -6.0102 H   0  0  0  0  0  0  0  0  0  0  0  0
   -2.8533    0.2712   -6.3412 H   0  0  0  0  0  0  0  0  0  0  0  0
   -1.3149   -0.0779   -4.4353 H   0  0  0  0  0  0  0  0  0  0  0  0
    0.4552   -2.8218    0.3725 H   0  0  0  0  0  0  0  0  0  0  0  0
    2.7293   -3.7236    0.4400 H   0  0  0  0  0  0  0  0  0  0  0  0
    5.0125   -4.6192    0.5511 H   0  0  0  0  0  0  0  0  0  0  0  0
    7.3114   -5.5151    0.6767 H   0  0  0  0  0  0  0  0  0  0  0  0
    9.7467   -5.1483    0.5979 H   0  0  0  0  0  0  0  0  0  0  0  0
   10.6540   -2.8702    0.2248 H   0  0  0  0  0  0  0  0  0  0  0  0
    9.1270   -0.9596   -0.0690 H   0  0  0  0  0  0  0  0  0  0  0  0
    6.8277   -0.0617   -0.1901 H   0  0  0  0  0  0  0  0  0  0  0  0
    4.5456    0.8289   -0.3069 H   0  0  0  0  0  0  0  0  0  0  0  0
    2.2677    1.7143   -0.4399 H   0  0  0  0  0  0  0  0  0  0  0  0
    1.9207    1.1100   -4.6564 H   0  0  0  0  0  0  0  0  0  0  0  0
    1.8903    2.0003   -6.9662 H   0  0  0  0  0  0  0  0  0  0  0  0
    0.2836    3.7958   -7.5824 H   0  0  0  0  0  0  0  0  0  0  0  0
   -1.2735    4.6830   -5.8814 H   0  0  0  0  0  0  0  0  0  0  0  0
   -2.1272    4.6352   -3.5280 H   0  0  0  0  0  0  0  0  0  0  0  0
   -2.9318    4.5676   -1.2293 H   0  0  0  0  0  0  0  0  0  0  0  0
   -4.5173    4.7788    3.0648 H   0  0  0  0  0  0  0  0  0  0  0  0
   -4.4907    4.0903    5.4411 H   0  0  0  0  0  0  0  0  0  0  0  0
   -2.8653    2.3799    6.2206 H   0  0  0  0  0  0  0  0  0  0  0  0
   -1.2831    1.3729    4.6160 H   0  0  0  0  0  0  0  0  0  0  0  0
   -0.4053    1.2345    2.3004 H   0  0  0  0  0  0  0  0  0  0  0  0
   -0.0882   -1.3925    2.7050 H   0  0  0  0  0  0  0  0  0  0  0  0
    0.1871   -1.9351    5.1025 H   0  0  0  0  0  0  0  0  0  0  0  0
  1  2  4  0
  2  3  4  0
  3  4  4  0
  4  5  4  0
  5  6  4  0
  6  7  4  0
  7  8  4  0
  8  9  4  0
  9 10  4  0
 10 11  4  0
 11 12  4  0
 12 13  4  0
 13 14  4  0
 14 15  4  0
 15 16  4  0
 16 17  4  0
 17 18  4  0
 18 19  1  0
 19 20  4  0
 20 21  4  0
 21 22  4  0
 22 23  4  0
 23 24  4  0
 24 25  4  0
 25 26  4  0
 26 27  4  0
 27 28  4  0
 28 29  4  0
 29 30  4  0
 30 31  4  0
 31 32  4  0
 32 33  4  0
 33 34  4  0
 34 35  4  0
 35 36  4  0
 36 37  1  0
 37 38  4  0
 38 39  4  0
 39 40  4  0
 40 41  4  0
 41 42  4  0
 42 43  4  0
 43 44  4  0
 44 45  4  0
 45 46  4  0
 46 47  4  0
 47 48  4  0
 48 49  4  0
 49 50  4  0
 50 51  4  0
 51 52  4  0
 52 53  4  0
 53 54  4  0
 54 55  4  0
 55 56  4  0
 56 57  4  0
 57 58  4  0
 18 59  4  0
 59 60  4  0
 60 61  4  0
 61 62  4  0
 62  1  4  0
 61  4  4  0
 59  6  4  0
 17  8  4  0
 36 19  4  0
 58 37  4  0
 15 10  4  0
 34 21  4  0
 47 38  4  0
 58 49  4  0
 32 23  4  0
 45 40  4  0
 56 51  4  0
 30 25  4  0
  1 63  1  0
  2 64  1  0
  3 65  1  0
  7 66  1  0
  9 67  1  0
 11 68  1  0
 12 69  1  0
 13 70  1  0
 14 71  1  0
 20 72  1  0
 22 73  1  0
 24 74  1  0
 26 75  1  0
 27 76  1  0
 28 77  1  0
 29 78  1  0
 31 79  1  0
 33 80  1  0
 35 81  1  0
 41 82  1  0
 42 83  1  0
 43 84  1  0
 44 85  1  0
 46 86  1  0
 48 87  1  0
 52 88  1  0
 53 89  1  0
 54 90  1  0
 55 91  1  0
 57 92  1  0
 60 93  1  0
 62 94  1  0
M  END
