
     RDKit          3D

 94107  0  0  0  0  0  0  0  0999 V2000
    9.8916   -7.3869   -0.1011 C   0  0  0  0  0  0  0  0  0  0  0  0
    8.8071   -6.9472   -0.8565 C   0  0  0  0  0  0  0  0  0  0  0  0
    8.0977   -5.7941   -0.4754 C   0  0  0  0  0  0  0  0  0  0  0  0
    7.0040   -5.3236   -1.2098 C   0  0  0  0  0  0  0  0  0  0  0  0
    6.3247   -4.1723   -0.7974 C   0  0  0  0  0  0  0  0  0  0  0  0
    5.2197   -3.6657   -1.5066 C   0  0  0  0  0  0  0  0  0  0  0  0
    4.5489   -2.5259   -1.0943 C   0  0  0  0  0  0  0  0  0  0  0  0
    3.4996   -2.0844   -1.8067 N   0  0  0  0  0  0  0  0  0  0  0  0
    2.8462   -0.9828   -1.3979 C   0  0  0  0  0  0  0  0  0  0  0  0
    1.7539   -0.5307   -2.1228 C   0  0  0  0  0  0  0  0  0  0  0  0
    1.0335    0.6059   -1.7376 C   0  0  0  0  0  0  0  0  0  0  0  0
    1.3990    1.3281   -0.5973 C   0  0  0  0  0  0  0  0  0  0  0  0
    0.6413    2.5174   -0.1747 C   0  0  0  0  0  0  0  0  0  0  0  0
    1.2152    3.7881   -0.3823 C   0  0  0  0  0  0  0  0  0  0  0  0
    0.5502    4.9712   -0.0225 C   0  0  0  0  0  0  0  0  0  0  0  0
    1.1265    6.2343   -0.2398 C   0  0  0  0  0  0  0  0  0  0  0  0
    0.4575    7.4164    0.1198 C   0  0  0  0  0  0  0  0  0  0  0  0
    1.0327    8.6795   -0.0996 C   0  0  0  0  0  0  0  0  0  0  0  0
    0.3642    9.8612    0.2600 C   0  0  0  0  0  0  0  0  0  0  0  0
    0.9386   11.1242    0.0404 C   0  0  0  0  0  0  0  0  0  0  0  0
    0.2616   12.2893    0.4034 C   0  0  0  0  0  0  0  0  0  0  0  0
   -0.9972   12.2071    0.9903 C   0  0  0  0  0  0  0  0  0  0  0  0
   -1.5811   10.9595    1.2150 C   0  0  0  0  0  0  0  0  0  0  0  0
   -0.9125    9.7777    0.8550 C   0  0  0  0  0  0  0  0  0  0  0  0
   -1.4867    8.5144    1.0737 C   0  0  0  0  0  0  0  0  0  0  0  0
   -0.8175    7.3328    0.7126 C   0  0  0  0  0  0  0  0  0  0  0  0
   -1.3926    6.0693    0.9290 C   0  0  0  0  0  0  0  0  0  0  0  0
   -0.7239    4.8883    0.5667 C   0  0  0  0  0  0  0  0  0  0  0  0
   -1.2999    3.6254    0.7792 C   0  0  0  0  0  0  0  0  0  0  0  0
   -0.6410    2.4325    0.4182 C   0  0  0  0  0  0  0  0  0  0  0  0
   -1.3162    1.1472    0.6761 C   0  0  0  0  0  0  0  0  0  0  0  0
   -0.8239    0.2437    1.6240 C   0  0  0  0  0  0  0  0  0  0  0  0
   -1.4689   -0.9781    1.8513 C   0  0  0  0  0  0  0  0  0  0  0  0
   -2.6172   -1.3368    1.1623 C   0  0  0  0  0  0  0  0  0  0  0  0
   -3.1997   -2.5208    1.4212 N   0  0  0  0  0  0  0  0  0  0  0  0
   -4.3129   -2.8634    0.7522 C   0  0  0  0  0  0  0  0  0  0  0  0
   -4.9169   -4.0827    1.0142 C   0  0  0  0  0  0  0  0  0  0  0  0
   -6.0858   -4.4902    0.3443 C   0  0  0  0  0  0  0  0  0  0  0  0
   -6.6988   -5.7207    0.6056 C   0  0  0  0  0  0  0  0  0  0  0  0
   -7.8603   -6.0866   -0.0829 C   0  0  0  0  0  0  0  0  0  0  0  0
   -8.5062   -7.3139    0.1505 C   0  0  0  0  0  0  0  0  0  0  0  0
   -9.6614   -7.6452   -0.5537 C   0  0  0  0  0  0  0  0  0  0  0  0
  -10.1732   -6.7545   -1.4901 C   0  0  0  0  0  0  0  0  0  0  0  0
   -9.5266   -5.5360   -1.7176 C   0  0  0  0  0  0  0  0  0  0  0  0
   -8.3740   -5.1804   -1.0300 C   0  0  0  0  0  0  0  0  0  0  0  0
   -7.7906   -3.9959   -1.2866 N   0  0  0  0  0  0  0  0  0  0  0  0
   -6.6755   -3.6566   -0.6191 C   0  0  0  0  0  0  0  0  0  0  0  0
   -6.0717   -2.4375   -0.8810 C   0  0  0  0  0  0  0  0  0  0  0  0
   -4.9030   -2.0300   -0.2112 C   0  0  0  0  0  0  0  0  0  0  0  0
   -4.2916   -0.7986   -0.4722 C   0  0  0  0  0  0  0  0  0  0  0  0
   -3.1294   -0.4320    0.2151 C   0  0  0  0  0  0  0  0  0  0  0  0
   -2.4812    0.7959   -0.0212 C   0  0  0  0  0  0  0  0  0  0  0  0
    2.5092    0.8874    0.1361 C   0  0  0  0  0  0  0  0  0  0  0  0
    3.2251   -0.2605   -0.2521 C   0  0  0  0  0  0  0  0  0  0  0  0
    4.3233   -0.7268    0.4779 C   0  0  0  0  0  0  0  0  0  0  0  0
    5.0039   -1.8770    0.0643 C   0  0  0  0  0  0  0  0  0  0  0  0
    6.1091   -2.3833    0.7732 C   0  0  0  0  0  0  0  0  0  0  0  0
    6.7796   -3.5235    0.3616 C   0  0  0  0  0  0  0  0  0  0  0  0
    7.8280   -3.9649    1.0757 N   0  0  0  0  0  0  0  0  0  0  0  0
    8.4759   -5.0724    0.6728 C   0  0  0  0  0  0  0  0  0  0  0  0
    9.5605   -5.5330    1.4072 C   0  0  0  0  0  0  0  0  0  0  0  0
   10.2696   -6.6785    1.0335 C   0  0  0  0  0  0  0  0  0  0  0  0
   10.4386   -8.2782   -0.3972 H   0  0  0  0  0  0  0  0  0  0  0  0
    8.5174   -7.5067   -1.7430 H   0  0  0  0  0  0  0  0  0  0  0  0
    6.6819   -5.8541   -2.1030 H   0  0  0  0  0  0  0  0  0  0  0  0
    4.8689   -4.1702   -2.4044 H   0  0  0  0  0  0  0  0  0  0  0  0
    1.4484   -1.0807   -3.0098 H   0  0  0  0  0  0  0  0  0  0  0  0
    0.1799    0.9186   -2.3352 H   0  0  0  0  0  0  0  0  0  0  0  0
    2.2000    3.8494   -0.8453 H   0  0  0  0  0  0  0  0  0  0  0  0
    2.1120    6.2990   -0.6982 H   0  0  0  0  0  0  0  0  0  0  0  0
    2.0178    8.7442   -0.5584 H   0  0  0  0  0  0  0  0  0  0  0  0
    1.9219   11.2092   -0.4169 H   0  0  0  0  0  0  0  0  0  0  0  0
    0.7181   13.2599    0.2275 H   0  0  0  0  0  0  0  0  0  0  0  0
   -1.5261   13.1132    1.2738 H   0  0  0  0  0  0  0  0  0  0  0  0
   -2.5658   10.9164    1.6752 H   0  0  0  0  0  0  0  0  0  0  0  0
   -2.4715    8.4515    1.5330 H   0  0  0  0  0  0  0  0  0  0  0  0
   -2.3784    6.0036    1.3864 H   0  0  0  0  0  0  0  0  0  0  0  0
   -2.2837    3.5619    1.2440 H   0  0  0  0  0  0  0  0  0  0  0  0
    0.0726    0.4782    2.1943 H   0  0  0  0  0  0  0  0  0  0  0  0
   -1.0599   -1.6681    2.5858 H   0  0  0  0  0  0  0  0  0  0  0  0
   -4.4624   -4.7300    1.7613 H   0  0  0  0  0  0  0  0  0  0  0  0
   -6.2717   -6.3943    1.3451 H   0  0  0  0  0  0  0  0  0  0  0  0
   -8.1118   -8.0160    0.8816 H   0  0  0  0  0  0  0  0  0  0  0  0
  -10.1592   -8.5941   -0.3720 H   0  0  0  0  0  0  0  0  0  0  0  0
  -11.0738   -7.0012   -2.0460 H   0  0  0  0  0  0  0  0  0  0  0  0
   -9.9328   -4.8441   -2.4516 H   0  0  0  0  0  0  0  0  0  0  0  0
   -6.5272   -1.7906   -1.6278 H   0  0  0  0  0  0  0  0  0  0  0  0
   -4.7216   -0.1258   -1.2110 H   0  0  0  0  0  0  0  0  0  0  0  0
   -2.8830    1.4825   -0.7648 H   0  0  0  0  0  0  0  0  0  0  0  0
    2.8102    1.4362    1.0271 H   0  0  0  0  0  0  0  0  0  0  0  0
    4.6466   -0.1978    1.3716 H   0  0  0  0  0  0  0  0  0  0  0  0
    6.4578   -1.8795    1.6722 H   0  0  0  0  0  0  0  0  0  0  0  0
    9.8620   -4.9839    2.2961 H   0  0  0  0  0  0  0  0  0  0  0  0
   11.1140   -7.0113    1.6314 H   0  0  0  0  0  0  0  0  0  0  0  0
  1  2  4  0
  2  3  4  0
  3  4  4  0
  4  5  4  0
  5  6  4  0
  6  7  4  0
  7  8  4  0
  8  9  4  0
  9 10  4  0
 10 11  4  0
 11 12  4  0
 12 13  1  0
 13 14  4  0
 14 15  4  0
 15 16  4  0
 16 17  4  0
 17 18  4  0
 18 19  4  0
 19 20  4  0
 20 21  4  0
 21 22  4  0
 22 23  4  0
 23 24  4  0
 24 25  4  0
 25 26  4  0
 26 27  4  0
 27 28  4  0
 28 29  4  0
 29 30  4  0
 30 31  1  0
 31 32  4  0
 32 33  4  0
 33 34  4  0
 34 35  4  0
 35 36  4  0
 36 37  4  0
 37 38  4  0
 38 39  4  0
 39 40  4  0
 40 41  4  0
 41 42  4  0
 42 43  4  0
 43 44  4  0
 44 45  4  0
 45 46  4  0
 46 47  4  0
 47 48  4  0
 48 49  4  0
 49 50  4  0
 50 51  4  0
 51 52  4  0
 12 53  4  0
 53 54  4  0
 54 55  4  0
 55 56  4  0
 56 57  4  0
 57 58  4  0
 58 59  4  0
 59 60  4  0
 60 61  4  0
 61 62  4  0
 62  1  4  0
 60  3  4  0
 58  5  4  0
 56  7  4  0
 54  9  4  0
 30 13  4  0
 52 31  4  0
 28 15  4  0
 51 34  4  0
 26 17  4  0
 49 36  4  0
 24 19  4  0
 47 38  4  0
 45 40  4  0
  1 63  1  0
  2 64  1  0
  4 65  1  0
  6 66  1  0
 10 67  1  0
 11 68  1  0
 14 69  1  0
 16 70  1  0
 18 71  1  0
 20 72  1  0
 21 73  1  0
 22 74  1  0
 23 75  1  0
 25 76  1  0
 27 77  1  0
 29 78  1  0
 32 79  1  0
 33 80  1  0
 37 81  1  0
 39 82  1  0
 41 83  1  0
 42 84  1  0
 43 85  1  0
 44 86  1  0
 48 87  1  0
 50 88  1  0
 52 89  1  0
 53 90  1  0
 55 91  1  0
 57 92  1  0
 61 93  1  0
 62 94  1  0
M  END
