
     RDKit          3D

 94107  0  0  0  0  0  0  0  0999 V2000
    3.6064   -5.9371   -4.6931 C   0  0  0  0  0  0  0  0  0  0  0  0
    4.5295   -6.7041   -3.9919 C   0  0  0  0  0  0  0  0  0  0  0  0
    4.8209   -6.3963   -2.6593 C   0  0  0  0  0  0  0  0  0  0  0  0
    4.2108   -5.3353   -2.0034 C   0  0  0  0  0  0  0  0  0  0  0  0
    4.5261   -5.0826   -0.7202 N   0  0  0  0  0  0  0  0  0  0  0  0
    3.9314   -4.0537   -0.0912 C   0  0  0  0  0  0  0  0  0  0  0  0
    4.2477   -3.7904    1.2319 C   0  0  0  0  0  0  0  0  0  0  0  0
    3.6582   -2.7236    1.9367 C   0  0  0  0  0  0  0  0  0  0  0  0
    3.9640   -2.4543    3.2737 C   0  0  0  0  0  0  0  0  0  0  0  0
    3.3489   -1.3874    3.9384 C   0  0  0  0  0  0  0  0  0  0  0  0
    3.6488   -1.1160    5.2831 C   0  0  0  0  0  0  0  0  0  0  0  0
    3.0394   -0.0550    5.9391 C   0  0  0  0  0  0  0  0  0  0  0  0
    2.1258    0.7349    5.2518 C   0  0  0  0  0  0  0  0  0  0  0  0
    1.8048    0.4753    3.9001 C   0  0  0  0  0  0  0  0  0  0  0  0
    0.8232    1.3647    3.2302 C   0  0  0  0  0  0  0  0  0  0  0  0
    1.2099    2.7056    3.0004 C   0  0  0  0  0  0  0  0  0  0  0  0
    0.3578    3.6391    2.3903 C   0  0  0  0  0  0  0  0  0  0  0  0
    0.7607    4.9642    2.1538 C   0  0  0  0  0  0  0  0  0  0  0  0
   -0.0962    5.8904    1.5356 C   0  0  0  0  0  0  0  0  0  0  0  0
    0.3065    7.2146    1.2951 C   0  0  0  0  0  0  0  0  0  0  0  0
   -0.5502    8.1394    0.6756 C   0  0  0  0  0  0  0  0  0  0  0  0
   -0.1485    9.4638    0.4360 C   0  0  0  0  0  0  0  0  0  0  0  0
   -1.0115   10.3709   -0.1806 C   0  0  0  0  0  0  0  0  0  0  0  0
   -2.2857    9.9660   -0.5657 C   0  0  0  0  0  0  0  0  0  0  0  0
   -2.6993    8.6532   -0.3348 C   0  0  0  0  0  0  0  0  0  0  0  0
   -1.8426    7.7286    0.2851 C   0  0  0  0  0  0  0  0  0  0  0  0
   -2.2436    6.4042    0.5248 C   0  0  0  0  0  0  0  0  0  0  0  0
   -1.3864    5.4812    1.1462 C   0  0  0  0  0  0  0  0  0  0  0  0
   -1.7873    4.1571    1.3856 C   0  0  0  0  0  0  0  0  0  0  0  0
   -0.9285    3.2339    2.0037 C   0  0  0  0  0  0  0  0  0  0  0  0
   -1.3241    1.9078    2.2338 C   0  0  0  0  0  0  0  0  0  0  0  0
   -0.4704    0.9470    2.8229 C   0  0  0  0  0  0  0  0  0  0  0  0
   -0.9773   -0.4468    2.9770 C   0  0  0  0  0  0  0  0  0  0  0  0
   -0.9964   -1.0403    4.2570 C   0  0  0  0  0  0  0  0  0  0  0  0
   -1.4464   -2.3424    4.4428 C   0  0  0  0  0  0  0  0  0  0  0  0
   -1.9130   -3.0653    3.3538 C   0  0  0  0  0  0  0  0  0  0  0  0
   -1.9413   -2.4859    2.0762 C   0  0  0  0  0  0  0  0  0  0  0  0
   -2.4594   -3.1976    0.9861 C   0  0  0  0  0  0  0  0  0  0  0  0
   -2.5243   -2.6083   -0.2805 C   0  0  0  0  0  0  0  0  0  0  0  0
   -3.0690   -3.2728   -1.3975 C   0  0  0  0  0  0  0  0  0  0  0  0
   -3.1442   -2.6690   -2.6440 C   0  0  0  0  0  0  0  0  0  0  0  0
   -3.6918   -3.3372   -3.6749 N   0  0  0  0  0  0  0  0  0  0  0  0
   -3.7582   -2.7441   -4.8806 C   0  0  0  0  0  0  0  0  0  0  0  0
   -4.3216   -3.4300   -5.9484 C   0  0  0  0  0  0  0  0  0  0  0  0
   -4.4146   -2.8614   -7.2225 C   0  0  0  0  0  0  0  0  0  0  0  0
   -3.9348   -1.5757   -7.4431 C   0  0  0  0  0  0  0  0  0  0  0  0
   -3.3650   -0.8644   -6.3894 C   0  0  0  0  0  0  0  0  0  0  0  0
   -3.2747   -1.4418   -5.1101 C   0  0  0  0  0  0  0  0  0  0  0  0
   -2.7105   -0.7564   -4.0292 C   0  0  0  0  0  0  0  0  0  0  0  0
   -2.6403   -1.3648   -2.7712 C   0  0  0  0  0  0  0  0  0  0  0  0
   -2.0908   -0.7050   -1.6564 C   0  0  0  0  0  0  0  0  0  0  0  0
   -2.0336   -1.3054   -0.4095 C   0  0  0  0  0  0  0  0  0  0  0  0
   -1.5236   -0.6231    0.6253 N   0  0  0  0  0  0  0  0  0  0  0  0
   -1.4701   -1.1718    1.8644 C   0  0  0  0  0  0  0  0  0  0  0  0
    2.4250   -0.5930    3.2246 C   0  0  0  0  0  0  0  0  0  0  0  0
    2.1512   -0.8533    1.9288 N   0  0  0  0  0  0  0  0  0  0  0  0
    2.7299   -1.8883    1.3044 C   0  0  0  0  0  0  0  0  0  0  0  0
    2.4029   -2.1550   -0.0146 C   0  0  0  0  0  0  0  0  0  0  0  0
    2.9899   -3.2222   -0.7195 C   0  0  0  0  0  0  0  0  0  0  0  0
    2.6666   -3.4942   -2.0530 C   0  0  0  0  0  0  0  0  0  0  0  0
    3.2768   -4.5618   -2.7195 C   0  0  0  0  0  0  0  0  0  0  0  0
    2.9793   -4.8665   -4.0597 C   0  0  0  0  0  0  0  0  0  0  0  0
    3.3753   -6.1712   -5.7291 H   0  0  0  0  0  0  0  0  0  0  0  0
    5.0255   -7.5420   -4.4750 H   0  0  0  0  0  0  0  0  0  0  0  0
    5.5440   -7.0009   -2.1169 H   0  0  0  0  0  0  0  0  0  0  0  0
    4.9735   -4.4347    1.7235 H   0  0  0  0  0  0  0  0  0  0  0  0
    4.6805   -3.0819    3.7985 H   0  0  0  0  0  0  0  0  0  0  0  0
    4.3630   -1.7317    5.8258 H   0  0  0  0  0  0  0  0  0  0  0  0
    3.2740    0.1563    6.9789 H   0  0  0  0  0  0  0  0  0  0  0  0
    1.6473    1.5634    5.7720 H   0  0  0  0  0  0  0  0  0  0  0  0
    2.2117    3.0187    3.2937 H   0  0  0  0  0  0  0  0  0  0  0  0
    1.7593    5.2782    2.4518 H   0  0  0  0  0  0  0  0  0  0  0  0
    1.3041    7.5299    1.5945 H   0  0  0  0  0  0  0  0  0  0  0  0
    0.8436    9.7995    0.7294 H   0  0  0  0  0  0  0  0  0  0  0  0
   -0.6875   11.3928   -0.3597 H   0  0  0  0  0  0  0  0  0  0  0  0
   -2.9591   10.6709   -1.0462 H   0  0  0  0  0  0  0  0  0  0  0  0
   -3.6991    8.3560   -0.6435 H   0  0  0  0  0  0  0  0  0  0  0  0
   -3.2395    6.0852    0.2229 H   0  0  0  0  0  0  0  0  0  0  0  0
   -2.7813    3.8347    1.0804 H   0  0  0  0  0  0  0  0  0  0  0  0
   -2.3227    1.5987    1.9240 H   0  0  0  0  0  0  0  0  0  0  0  0
   -0.6590   -0.4762    5.1239 H   0  0  0  0  0  0  0  0  0  0  0  0
   -1.4411   -2.7854    5.4349 H   0  0  0  0  0  0  0  0  0  0  0  0
   -2.2752   -4.0790    3.5110 H   0  0  0  0  0  0  0  0  0  0  0  0
   -2.8279   -4.2114    1.1262 H   0  0  0  0  0  0  0  0  0  0  0  0
   -3.4567   -4.2839   -1.2944 H   0  0  0  0  0  0  0  0  0  0  0  0
   -4.6987   -4.4365   -5.7834 H   0  0  0  0  0  0  0  0  0  0  0  0
   -4.8615   -3.4267   -8.0363 H   0  0  0  0  0  0  0  0  0  0  0  0
   -4.0039   -1.1282   -8.4314 H   0  0  0  0  0  0  0  0  0  0  0  0
   -2.9919    0.1412   -6.5696 H   0  0  0  0  0  0  0  0  0  0  0  0
   -2.3246    0.2515   -4.1645 H   0  0  0  0  0  0  0  0  0  0  0  0
   -1.7026    0.3072   -1.7539 H   0  0  0  0  0  0  0  0  0  0  0  0
    1.6686   -1.5121   -0.4977 H   0  0  0  0  0  0  0  0  0  0  0  0
    1.9367   -2.8731   -2.5686 H   0  0  0  0  0  0  0  0  0  0  0  0
    2.2582   -4.2710   -4.6150 H   0  0  0  0  0  0  0  0  0  0  0  0
  1  2  4  0
  2  3  4  0
  3  4  4  0
  4  5  4  0
  5  6  4  0
  6  7  4  0
  7  8  4  0
  8  9  4  0
  9 10  4  0
 10 11  4  0
 11 12  4  0
 12 13  4  0
 13 14  4  0
 14 15  1  0
 15 16  4  0
 16 17  4  0
 17 18  4  0
 18 19  4  0
 19 20  4  0
 20 21  4  0
 21 22  4  0
 22 23  4  0
 23 24  4  0
 24 25  4  0
 25 26  4  0
 26 27  4  0
 27 28  4  0
 28 29  4  0
 29 30  4  0
 30 31  4  0
 31 32  4  0
 32 33  1  0
 33 34  4  0
 34 35  4  0
 35 36  4  0
 36 37  4  0
 37 38  4  0
 38 39  4  0
 39 40  4  0
 40 41  4  0
 41 42  4  0
 42 43  4  0
 43 44  4  0
 44 45  4  0
 45 46  4  0
 46 47  4  0
 47 48  4  0
 48 49  4  0
 49 50  4  0
 50 51  4  0
 51 52  4  0
 52 53  4  0
 53 54  4  0
 14 55  4  0
 55 56  4  0
 56 57  4  0
 57 58  4  0
 58 59  4  0
 59 60  4  0
 60 61  4  0
 61 62  4  0
 62  1  4  0
 61  4  4  0
 59  6  4  0
 57  8  4  0
 55 10  4  0
 32 15  4  0
 54 33  4  0
 30 17  4  0
 54 37  4  0
 28 19  4  0
 52 39  4  0
 26 21  4  0
 50 41  4  0
 48 43  4  0
  1 63  1  0
  2 64  1  0
  3 65  1  0
  7 66  1  0
  9 67  1  0
 11 68  1  0
 12 69  1  0
 13 70  1  0
 16 71  1  0
 18 72  1  0
 20 73  1  0
 22 74  1  0
 23 75  1  0
 24 76  1  0
 25 77  1  0
 27 78  1  0
 29 79  1  0
 31 80  1  0
 34 81  1  0
 35 82  1  0
 36 83  1  0
 38 84  1  0
 40 85  1  0
 44 86  1  0
 45 87  1  0
 46 88  1  0
 47 89  1  0
 49 90  1  0
 51 91  1  0
 58 92  1  0
 60 93  1  0
 62 94  1  0
M  END
