
     RDKit          3D

 94107  0  0  0  0  0  0  0  0999 V2000
   -3.0558   -8.5008    0.8458 C   0  0  0  0  0  0  0  0  0  0  0  0
   -3.3675   -7.7940   -0.3136 C   0  0  0  0  0  0  0  0  0  0  0  0
   -3.0374   -6.4312   -0.4252 C   0  0  0  0  0  0  0  0  0  0  0  0
   -3.3360   -5.6904   -1.5738 C   0  0  0  0  0  0  0  0  0  0  0  0
   -2.9911   -4.3360   -1.6457 C   0  0  0  0  0  0  0  0  0  0  0  0
   -3.2749   -3.5533   -2.7800 C   0  0  0  0  0  0  0  0  0  0  0  0
   -2.9350   -2.2115   -2.8449 C   0  0  0  0  0  0  0  0  0  0  0  0
   -3.2419   -1.5064   -3.9443 N   0  0  0  0  0  0  0  0  0  0  0  0
   -2.9092   -0.2064   -4.0080 C   0  0  0  0  0  0  0  0  0  0  0  0
   -3.2514    0.4888   -5.1571 C   0  0  0  0  0  0  0  0  0  0  0  0
   -2.9665    1.8433   -5.3112 C   0  0  0  0  0  0  0  0  0  0  0  0
   -2.3122    2.5235   -4.2932 C   0  0  0  0  0  0  0  0  0  0  0  0
   -1.9279    1.8576   -3.1153 C   0  0  0  0  0  0  0  0  0  0  0  0
   -1.2240    2.6373   -2.0753 C   0  0  0  0  0  0  0  0  0  0  0  0
   -1.9963    3.4304   -1.2028 C   0  0  0  0  0  0  0  0  0  0  0  0
   -1.4084    4.2247   -0.2067 C   0  0  0  0  0  0  0  0  0  0  0  0
   -2.1878    5.0009    0.6661 C   0  0  0  0  0  0  0  0  0  0  0  0
   -1.5985    5.7969    1.6619 C   0  0  0  0  0  0  0  0  0  0  0  0
   -2.3790    6.5685    2.5386 C   0  0  0  0  0  0  0  0  0  0  0  0
   -1.7899    7.3634    3.5354 C   0  0  0  0  0  0  0  0  0  0  0  0
   -2.5692    8.1338    4.4140 C   0  0  0  0  0  0  0  0  0  0  0  0
   -1.9690    8.9184    5.4000 C   0  0  0  0  0  0  0  0  0  0  0  0
   -0.5831    8.9431    5.5201 C   0  0  0  0  0  0  0  0  0  0  0  0
    0.2048    8.1833    4.6543 C   0  0  0  0  0  0  0  0  0  0  0  0
   -0.3843    7.3885    3.6572 C   0  0  0  0  0  0  0  0  0  0  0  0
    0.3950    6.6176    2.7792 C   0  0  0  0  0  0  0  0  0  0  0  0
   -0.1953    5.8209    1.7839 C   0  0  0  0  0  0  0  0  0  0  0  0
    0.5831    5.0457    0.9085 C   0  0  0  0  0  0  0  0  0  0  0  0
   -0.0081    4.2448   -0.0827 C   0  0  0  0  0  0  0  0  0  0  0  0
    0.7673    3.4596   -0.9504 C   0  0  0  0  0  0  0  0  0  0  0  0
    0.1853    2.6376   -1.9378 C   0  0  0  0  0  0  0  0  0  0  0  0
    1.0746    1.8169   -2.7931 C   0  0  0  0  0  0  0  0  0  0  0  0
    1.8090    0.6976   -2.2878 C   0  0  0  0  0  0  0  0  0  0  0  0
    1.7679    0.2539   -0.9480 C   0  0  0  0  0  0  0  0  0  0  0  0
    2.5476   -0.8267   -0.5140 C   0  0  0  0  0  0  0  0  0  0  0  0
    2.5523   -1.2618    0.8257 C   0  0  0  0  0  0  0  0  0  0  0  0
    3.3467   -2.3161    1.2502 C   0  0  0  0  0  0  0  0  0  0  0  0
    3.3242   -2.6835    2.5427 N   0  0  0  0  0  0  0  0  0  0  0  0
    4.0987   -3.7063    2.9488 C   0  0  0  0  0  0  0  0  0  0  0  0
    4.0828   -4.0871    4.2844 C   0  0  0  0  0  0  0  0  0  0  0  0
    4.8666   -5.1434    4.7590 C   0  0  0  0  0  0  0  0  0  0  0  0
    5.6898   -5.8416    3.8835 C   0  0  0  0  0  0  0  0  0  0  0  0
    5.7260   -5.4803    2.5385 C   0  0  0  0  0  0  0  0  0  0  0  0
    4.9354   -4.4166    2.0673 C   0  0  0  0  0  0  0  0  0  0  0  0
    4.9480   -4.0254    0.7243 C   0  0  0  0  0  0  0  0  0  0  0  0
    4.1483   -2.9602    0.2951 C   0  0  0  0  0  0  0  0  0  0  0  0
    4.1352   -2.5313   -1.0450 C   0  0  0  0  0  0  0  0  0  0  0  0
    3.3490   -1.4695   -1.4641 C   0  0  0  0  0  0  0  0  0  0  0  0
    3.3832   -1.0895   -2.7491 N   0  0  0  0  0  0  0  0  0  0  0  0
    2.6493   -0.0372   -3.1510 C   0  0  0  0  0  0  0  0  0  0  0  0
    2.7406    0.3378   -4.4813 C   0  0  0  0  0  0  0  0  0  0  0  0
    2.0427    1.4311   -4.9873 C   0  0  0  0  0  0  0  0  0  0  0  0
    1.2229    2.1700   -4.1450 C   0  0  0  0  0  0  0  0  0  0  0  0
   -2.2443    0.4755   -2.9668 C   0  0  0  0  0  0  0  0  0  0  0  0
   -1.9446   -0.2856   -1.8196 C   0  0  0  0  0  0  0  0  0  0  0  0
   -2.2850   -1.6419   -1.7431 C   0  0  0  0  0  0  0  0  0  0  0  0
   -1.9986   -2.4246   -0.6085 C   0  0  0  0  0  0  0  0  0  0  0  0
   -2.3446   -3.7651   -0.5388 C   0  0  0  0  0  0  0  0  0  0  0  0
   -2.0536   -4.4653    0.5707 N   0  0  0  0  0  0  0  0  0  0  0  0
   -2.3885   -5.7668    0.6328 C   0  0  0  0  0  0  0  0  0  0  0  0
   -2.0900   -6.4954    1.7770 C   0  0  0  0  0  0  0  0  0  0  0  0
   -2.4155   -7.8504    1.8940 C   0  0  0  0  0  0  0  0  0  0  0  0
   -3.3116   -9.5538    0.9301 H   0  0  0  0  0  0  0  0  0  0  0  0
   -3.8686   -8.3100   -1.1295 H   0  0  0  0  0  0  0  0  0  0  0  0
   -3.8377   -6.1680   -2.4124 H   0  0  0  0  0  0  0  0  0  0  0  0
   -3.7757   -3.9965   -3.6378 H   0  0  0  0  0  0  0  0  0  0  0  0
   -3.7634   -0.0421   -5.9569 H   0  0  0  0  0  0  0  0  0  0  0  0
   -3.2543    2.3603   -6.2225 H   0  0  0  0  0  0  0  0  0  0  0  0
   -2.0913    3.5821   -4.4204 H   0  0  0  0  0  0  0  0  0  0  0  0
   -3.0814    3.4222   -1.3081 H   0  0  0  0  0  0  0  0  0  0  0  0
   -3.2724    4.9839    0.5707 H   0  0  0  0  0  0  0  0  0  0  0  0
   -3.4634    6.5503    2.4451 H   0  0  0  0  0  0  0  0  0  0  0  0
   -3.6542    8.1279    4.3364 H   0  0  0  0  0  0  0  0  0  0  0  0
   -2.5847    9.5090    6.0732 H   0  0  0  0  0  0  0  0  0  0  0  0
   -0.1133    9.5527    6.2873 H   0  0  0  0  0  0  0  0  0  0  0  0
    1.2865    8.2158    4.7644 H   0  0  0  0  0  0  0  0  0  0  0  0
    1.4792    6.6396    2.8737 H   0  0  0  0  0  0  0  0  0  0  0  0
    1.6676    5.0634    1.0037 H   0  0  0  0  0  0  0  0  0  0  0  0
    1.8533    3.4776   -0.8561 H   0  0  0  0  0  0  0  0  0  0  0  0
    1.1338    0.7619   -0.2249 H   0  0  0  0  0  0  0  0  0  0  0  0
    1.9252   -0.7656    1.5635 H   0  0  0  0  0  0  0  0  0  0  0  0
    3.4418   -3.5453    4.9759 H   0  0  0  0  0  0  0  0  0  0  0  0
    4.8296   -5.4150    5.8108 H   0  0  0  0  0  0  0  0  0  0  0  0
    6.3015   -6.6638    4.2460 H   0  0  0  0  0  0  0  0  0  0  0  0
    6.3731   -6.0312    1.8597 H   0  0  0  0  0  0  0  0  0  0  0  0
    5.5820   -4.5493    0.0126 H   0  0  0  0  0  0  0  0  0  0  0  0
    4.7579   -3.0307   -1.7843 H   0  0  0  0  0  0  0  0  0  0  0  0
    3.3847   -0.2353   -5.1447 H   0  0  0  0  0  0  0  0  0  0  0  0
    2.1443    1.7050   -6.0340 H   0  0  0  0  0  0  0  0  0  0  0  0
    0.6925    3.0300   -4.5482 H   0  0  0  0  0  0  0  0  0  0  0  0
   -1.4451    0.1799   -0.9733 H   0  0  0  0  0  0  0  0  0  0  0  0
   -1.4918   -1.9813    0.2460 H   0  0  0  0  0  0  0  0  0  0  0  0
   -1.5893   -5.9935    2.6016 H   0  0  0  0  0  0  0  0  0  0  0  0
   -2.1669   -8.3906    2.8039 H   0  0  0  0  0  0  0  0  0  0  0  0
  1  2  4  0
  2  3  4  0
  3  4  4  0
  4  5  4  0
  5  6  4  0
  6  7  4  0
  7  8  4  0
  8  9  4  0
  9 10  4  0
 10 11  4  0
 11 12  4  0
 12 13  4  0
 13 14  1  0
 14 15  4  0
 15 16  4  0
 16 17  4  0
 17 18  4  0
 18 19  4  0
 19 20  4  0
 20 21  4  0
 21 22  4  0
 22 23  4  0
 23 24  4  0
 24 25  4  0
 25 26  4  0
 26 27  4  0
 27 28  4  0
 28 29  4  0
 29 30  4  0
 30 31  4  0
 31 32  1  0
 32 33  4  0
 33 34  4  0
 34 35  4  0
 35 36  4  0
 36 37  4  0
 37 38  4  0
 38 39  4  0
 39 40  4  0
 40 41  4  0
 41 42  4  0
 42 43  4  0
 43 44  4  0
 44 45  4  0
 45 46  4  0
 46 47  4  0
 47 48  4  0
 48 49  4  0
 49 50  4  0
 50 51  4  0
 51 52  4  0
 52 53  4  0
 13 54  4  0
 54 55  4  0
 55 56  4  0
 56 57  4  0
 57 58  4  0
 58 59  4  0
 59 60  4  0
 60 61  4  0
 61 62  4  0
 62  1  4  0
 60  3  4  0
 58  5  4  0
 56  7  4  0
 54  9  4  0
 31 14  4  0
 53 32  4  0
 29 16  4  0
 50 33  4  0
 27 18  4  0
 48 35  4  0
 25 20  4  0
 46 37  4  0
 44 39  4  0
  1 63  1  0
  2 64  1  0
  4 65  1  0
  6 66  1  0
 10 67  1  0
 11 68  1  0
 12 69  1  0
 15 70  1  0
 17 71  1  0
 19 72  1  0
 21 73  1  0
 22 74  1  0
 23 75  1  0
 24 76  1  0
 26 77  1  0
 28 78  1  0
 30 79  1  0
 34 80  1  0
 36 81  1  0
 40 82  1  0
 41 83  1  0
 42 84  1  0
 43 85  1  0
 45 86  1  0
 47 87  1  0
 51 88  1  0
 52 89  1  0
 53 90  1  0
 55 91  1  0
 57 92  1  0
 61 93  1  0
 62 94  1  0
M  END
