
     RDKit          3D

 90103  0  0  0  0  0  0  0  0999 V2000
   -4.1415   -5.4537   -3.8603 C   0  0  0  0  0  0  0  0  0  0  0  0
   -4.5923   -6.1313   -2.7422 C   0  0  0  0  0  0  0  0  0  0  0  0
   -4.4160   -5.5825   -1.4712 C   0  0  0  0  0  0  0  0  0  0  0  0
   -3.7692   -4.3167   -1.3053 C   0  0  0  0  0  0  0  0  0  0  0  0
   -3.3056   -3.6094   -2.4440 C   0  0  0  0  0  0  0  0  0  0  0  0
   -3.5124   -4.2196   -3.7099 C   0  0  0  0  0  0  0  0  0  0  0  0
   -2.6632   -2.3379   -2.2775 C   0  0  0  0  0  0  0  0  0  0  0  0
   -2.1907   -1.5772   -3.3743 C   0  0  0  0  0  0  0  0  0  0  0  0
   -1.5731   -0.3438   -3.2189 C   0  0  0  0  0  0  0  0  0  0  0  0
   -1.3978    0.1733   -1.9484 C   0  0  0  0  0  0  0  0  0  0  0  0
   -1.8276   -0.5241   -0.8053 C   0  0  0  0  0  0  0  0  0  0  0  0
   -2.4800   -1.7937   -0.9739 C   0  0  0  0  0  0  0  0  0  0  0  0
   -2.9458   -2.5125    0.1607 C   0  0  0  0  0  0  0  0  0  0  0  0
   -2.7391   -1.9249    1.4290 C   0  0  0  0  0  0  0  0  0  0  0  0
   -2.1013   -0.6988    1.5928 C   0  0  0  0  0  0  0  0  0  0  0  0
   -1.6247    0.0118    0.4920 C   0  0  0  0  0  0  0  0  0  0  0  0
   -0.9380    1.2987    0.7442 C   0  0  0  0  0  0  0  0  0  0  0  0
   -1.6958    2.4860    0.7060 C   0  0  0  0  0  0  0  0  0  0  0  0
   -1.1150    3.7429    0.9367 C   0  0  0  0  0  0  0  0  0  0  0  0
   -1.8771    4.9219    0.8890 C   0  0  0  0  0  0  0  0  0  0  0  0
   -1.2959    6.1801    1.1188 C   0  0  0  0  0  0  0  0  0  0  0  0
   -2.0584    7.3596    1.0704 C   0  0  0  0  0  0  0  0  0  0  0  0
   -1.4770    8.6175    1.3001 C   0  0  0  0  0  0  0  0  0  0  0  0
   -2.2383    9.7973    1.2523 C   0  0  0  0  0  0  0  0  0  0  0  0
   -1.6451   11.0395    1.4824 C   0  0  0  0  0  0  0  0  0  0  0  0
   -0.2848   11.1183    1.7634 C   0  0  0  0  0  0  0  0  0  0  0  0
    0.4848    9.9551    1.8149 C   0  0  0  0  0  0  0  0  0  0  0  0
   -0.0973    8.6976    1.5852 C   0  0  0  0  0  0  0  0  0  0  0  0
    0.6638    7.5181    1.6335 C   0  0  0  0  0  0  0  0  0  0  0  0
    0.0813    6.2602    1.4038 C   0  0  0  0  0  0  0  0  0  0  0  0
    0.8426    5.0801    1.4520 C   0  0  0  0  0  0  0  0  0  0  0  0
    0.2605    3.8225    1.2217 C   0  0  0  0  0  0  0  0  0  0  0  0
    1.0207    2.6428    1.2694 C   0  0  0  0  0  0  0  0  0  0  0  0
    0.4464    1.3783    1.0311 C   0  0  0  0  0  0  0  0  0  0  0  0
    1.3119    0.1789    1.1026 C   0  0  0  0  0  0  0  0  0  0  0  0
    1.3527   -0.5229    2.3067 C   0  0  0  0  0  0  0  0  0  0  0  0
    2.1207   -1.6762    2.4350 C   0  0  0  0  0  0  0  0  0  0  0  0
    2.8998   -2.1941    1.3763 C   0  0  0  0  0  0  0  0  0  0  0  0
    3.6786   -3.3913    1.5086 C   0  0  0  0  0  0  0  0  0  0  0  0
    3.7255   -4.1653    2.6988 C   0  0  0  0  0  0  0  0  0  0  0  0
    4.4865   -5.3266    2.8158 C   0  0  0  0  0  0  0  0  0  0  0  0
    5.2368   -5.7629    1.7392 C   0  0  0  0  0  0  0  0  0  0  0  0
    5.2286   -5.0450    0.5422 C   0  0  0  0  0  0  0  0  0  0  0  0
    4.4494   -3.8520    0.4108 C   0  0  0  0  0  0  0  0  0  0  0  0
    4.4539   -3.1405   -0.8162 C   0  0  0  0  0  0  0  0  0  0  0  0
    5.2535   -3.6691   -1.8647 C   0  0  0  0  0  0  0  0  0  0  0  0
    6.0096   -4.8311   -1.7260 C   0  0  0  0  0  0  0  0  0  0  0  0
    5.9955   -5.5157   -0.5246 C   0  0  0  0  0  0  0  0  0  0  0  0
    3.6696   -1.9468   -0.9474 C   0  0  0  0  0  0  0  0  0  0  0  0
    3.6297   -1.1941   -2.1458 C   0  0  0  0  0  0  0  0  0  0  0  0
    2.8726   -0.0381   -2.2778 C   0  0  0  0  0  0  0  0  0  0  0  0
    2.1211    0.4094   -1.2062 C   0  0  0  0  0  0  0  0  0  0  0  0
    2.0991   -0.2843    0.0171 C   0  0  0  0  0  0  0  0  0  0  0  0
    2.8910   -1.4767    0.1492 C   0  0  0  0  0  0  0  0  0  0  0  0
   -3.5982   -3.7796   -0.0037 C   0  0  0  0  0  0  0  0  0  0  0  0
   -4.0963   -4.5495    1.0815 C   0  0  0  0  0  0  0  0  0  0  0  0
   -4.7268   -5.7802    0.9087 C   0  0  0  0  0  0  0  0  0  0  0  0
   -4.8843   -6.2939   -0.3655 C   0  0  0  0  0  0  0  0  0  0  0  0
   -4.2771   -5.8798   -4.8507 H   0  0  0  0  0  0  0  0  0  0  0  0
   -5.0828   -7.0933   -2.8732 H   0  0  0  0  0  0  0  0  0  0  0  0
   -3.1813   -3.7409   -4.6265 H   0  0  0  0  0  0  0  0  0  0  0  0
   -2.2933   -1.9303   -4.3954 H   0  0  0  0  0  0  0  0  0  0  0  0
   -1.2265    0.2089   -4.0875 H   0  0  0  0  0  0  0  0  0  0  0  0
   -0.9100    1.1413   -1.8644 H   0  0  0  0  0  0  0  0  0  0  0  0
   -3.0667   -2.4146    2.3405 H   0  0  0  0  0  0  0  0  0  0  0  0
   -1.9690   -0.3034    2.5979 H   0  0  0  0  0  0  0  0  0  0  0  0
   -2.7613    2.4193    0.4863 H   0  0  0  0  0  0  0  0  0  0  0  0
   -2.9416    4.8592    0.6687 H   0  0  0  0  0  0  0  0  0  0  0  0
   -3.1226    7.2979    0.8501 H   0  0  0  0  0  0  0  0  0  0  0  0
   -3.3033    9.7571    1.0349 H   0  0  0  0  0  0  0  0  0  0  0  0
   -2.2462   11.9442    1.4425 H   0  0  0  0  0  0  0  0  0  0  0  0
    0.1790   12.0846    1.9434 H   0  0  0  0  0  0  0  0  0  0  0  0
    1.5464   10.0379    2.0369 H   0  0  0  0  0  0  0  0  0  0  0  0
    1.7279    7.5806    1.8540 H   0  0  0  0  0  0  0  0  0  0  0  0
    1.9072    5.1417    1.6719 H   0  0  0  0  0  0  0  0  0  0  0  0
    2.0860    2.6995    1.4927 H   0  0  0  0  0  0  0  0  0  0  0  0
    0.7702   -0.1805    3.1596 H   0  0  0  0  0  0  0  0  0  0  0  0
    2.0821   -2.1664    3.4026 H   0  0  0  0  0  0  0  0  0  0  0  0
    3.1574   -3.8799    3.5789 H   0  0  0  0  0  0  0  0  0  0  0  0
    4.4883   -5.8857    3.7475 H   0  0  0  0  0  0  0  0  0  0  0  0
    5.8268   -6.6708    1.8429 H   0  0  0  0  0  0  0  0  0  0  0  0
    5.3073   -3.1807   -2.8329 H   0  0  0  0  0  0  0  0  0  0  0  0
    6.6057   -5.1969   -2.5577 H   0  0  0  0  0  0  0  0  0  0  0  0
    6.5893   -6.4220   -0.4293 H   0  0  0  0  0  0  0  0  0  0  0  0
    4.1951   -1.4940   -3.0224 H   0  0  0  0  0  0  0  0  0  0  0  0
    2.8671    0.5097   -3.2159 H   0  0  0  0  0  0  0  0  0  0  0  0
    1.5439    1.3201   -1.3451 H   0  0  0  0  0  0  0  0  0  0  0  0
   -4.0056   -4.2029    2.1065 H   0  0  0  0  0  0  0  0  0  0  0  0
   -5.0924   -6.3324    1.7703 H   0  0  0  0  0  0  0  0  0  0  0  0
   -5.3774   -7.2558   -0.4874 H   0  0  0  0  0  0  0  0  0  0  0  0
  1  2  4  0
  2  3  4  0
  3  4  4  0
  4  5  4  0
  5  6  4  0
  5  7  4  0
  7  8  4  0
  8  9  4  0
  9 10  4  0
 10 11  4  0
 11 12  4  0
 12 13  4  0
 13 14  4  0
 14 15  4  0
 15 16  4  0
 16 17  1  0
 17 18  4  0
 18 19  4  0
 19 20  4  0
 20 21  4  0
 21 22  4  0
 22 23  4  0
 23 24  4  0
 24 25  4  0
 25 26  4  0
 26 27  4  0
 27 28  4  0
 28 29  4  0
 29 30  4  0
 30 31  4  0
 31 32  4  0
 32 33  4  0
 33 34  4  0
 34 35  1  0
 35 36  4  0
 36 37  4  0
 37 38  4  0
 38 39  4  0
 39 40  4  0
 40 41  4  0
 41 42  4  0
 42 43  4  0
 43 44  4  0
 44 45  4  0
 45 46  4  0
 46 47  4  0
 47 48  4  0
 45 49  4  0
 49 50  4  0
 50 51  4  0
 51 52  4  0
 52 53  4  0
 53 54  4  0
 13 55  4  0
 55 56  4  0
 56 57  4  0
 57 58  4  0
  6  1  4  0
 12  7  4  0
 34 17  4  0
 53 35  4  0
 58  3  4  0
 55  4  4  0
 16 11  4  0
 32 19  4  0
 54 38  4  0
 30 21  4  0
 44 39  4  0
 54 49  4  0
 28 23  4  0
 48 43  4  0
  1 59  1  0
  2 60  1  0
  6 61  1  0
  8 62  1  0
  9 63  1  0
 10 64  1  0
 14 65  1  0
 15 66  1  0
 18 67  1  0
 20 68  1  0
 22 69  1  0
 24 70  1  0
 25 71  1  0
 26 72  1  0
 27 73  1  0
 29 74  1  0
 31 75  1  0
 33 76  1  0
 36 77  1  0
 37 78  1  0
 40 79  1  0
 41 80  1  0
 42 81  1  0
 46 82  1  0
 47 83  1  0
 48 84  1  0
 50 85  1  0
 51 86  1  0
 52 87  1  0
 56 88  1  0
 57 89  1  0
 58 90  1  0
M  END
