
     RDKit          3D

 90103  0  0  0  0  0  0  0  0999 V2000
    0.7736    5.0477    4.3134 C   0  0  0  0  0  0  0  0  0  0  0  0
    1.3343    3.8017    4.5024 C   0  0  0  0  0  0  0  0  0  0  0  0
    1.2362    2.8318    3.5044 C   0  0  0  0  0  0  0  0  0  0  0  0
    0.5632    3.0981    2.2618 C   0  0  0  0  0  0  0  0  0  0  0  0
   -0.0200    4.3720    2.0682 C   0  0  0  0  0  0  0  0  0  0  0  0
    0.1102    5.3210    3.1215 C   0  0  0  0  0  0  0  0  0  0  0  0
   -0.7011    4.6544    0.8479 C   0  0  0  0  0  0  0  0  0  0  0  0
   -1.3442    5.9023    0.6235 C   0  0  0  0  0  0  0  0  0  0  0  0
   -1.9937    6.2191   -0.5622 C   0  0  0  0  0  0  0  0  0  0  0  0
   -2.0154    5.2924   -1.5810 C   0  0  0  0  0  0  0  0  0  0  0  0
   -1.4021    4.0498   -1.4144 C   0  0  0  0  0  0  0  0  0  0  0  0
   -0.7445    3.6804   -0.1936 C   0  0  0  0  0  0  0  0  0  0  0  0
   -0.1493    2.3823   -0.0444 C   0  0  0  0  0  0  0  0  0  0  0  0
   -0.2306    1.5066   -1.2130 C   0  0  0  0  0  0  0  0  0  0  0  0
    0.3683    0.1488   -1.3312 C   0  0  0  0  0  0  0  0  0  0  0  0
    1.7737    0.0501   -1.4442 C   0  0  0  0  0  0  0  0  0  0  0  0
    2.4260   -1.1830   -1.6036 C   0  0  0  0  0  0  0  0  0  0  0  0
    3.8266   -1.2680   -1.6680 C   0  0  0  0  0  0  0  0  0  0  0  0
    4.4792   -2.5025   -1.8210 C   0  0  0  0  0  0  0  0  0  0  0  0
    5.8805   -2.5885   -1.8777 C   0  0  0  0  0  0  0  0  0  0  0  0
    6.5328   -3.8234   -2.0274 C   0  0  0  0  0  0  0  0  0  0  0  0
    7.9337   -3.9103   -2.0819 C   0  0  0  0  0  0  0  0  0  0  0  0
    8.5672   -5.1451   -2.2299 C   0  0  0  0  0  0  0  0  0  0  0  0
    7.8089   -6.3077   -2.3258 C   0  0  0  0  0  0  0  0  0  0  0  0
    6.4160   -6.2376   -2.2740 C   0  0  0  0  0  0  0  0  0  0  0  0
    5.7637   -5.0025   -2.1248 C   0  0  0  0  0  0  0  0  0  0  0  0
    4.3628   -4.9151   -2.0696 C   0  0  0  0  0  0  0  0  0  0  0  0
    3.7114   -3.6795   -1.9181 C   0  0  0  0  0  0  0  0  0  0  0  0
    2.3104   -3.5924   -1.8600 C   0  0  0  0  0  0  0  0  0  0  0  0
    1.6594   -2.3579   -1.7002 C   0  0  0  0  0  0  0  0  0  0  0  0
    0.2593   -2.2694   -1.6448 C   0  0  0  0  0  0  0  0  0  0  0  0
   -0.4085   -1.0395   -1.4523 C   0  0  0  0  0  0  0  0  0  0  0  0
   -1.8948   -1.0204   -1.5380 C   0  0  0  0  0  0  0  0  0  0  0  0
   -2.8014   -0.8379   -0.4238 C   0  0  0  0  0  0  0  0  0  0  0  0
   -2.4914   -1.0074    0.9837 C   0  0  0  0  0  0  0  0  0  0  0  0
   -1.3213   -1.6476    1.4608 C   0  0  0  0  0  0  0  0  0  0  0  0
   -1.0092   -1.7824    2.8135 C   0  0  0  0  0  0  0  0  0  0  0  0
   -1.8671   -1.2717    3.7657 C   0  0  0  0  0  0  0  0  0  0  0  0
   -3.0673   -0.6860    3.3716 C   0  0  0  0  0  0  0  0  0  0  0  0
   -3.4098   -0.5826    1.9838 C   0  0  0  0  0  0  0  0  0  0  0  0
   -4.6802   -0.0738    1.6260 C   0  0  0  0  0  0  0  0  0  0  0  0
   -5.5203    0.3867    2.6764 C   0  0  0  0  0  0  0  0  0  0  0  0
   -5.1550    0.3237    4.0183 C   0  0  0  0  0  0  0  0  0  0  0  0
   -3.9338   -0.2231    4.3634 C   0  0  0  0  0  0  0  0  0  0  0  0
   -5.0722   -0.0778    0.2535 C   0  0  0  0  0  0  0  0  0  0  0  0
   -6.3821    0.2829   -0.1596 C   0  0  0  0  0  0  0  0  0  0  0  0
   -6.7870    0.2613   -1.4895 C   0  0  0  0  0  0  0  0  0  0  0  0
   -5.8857   -0.1175   -2.4638 C   0  0  0  0  0  0  0  0  0  0  0  0
   -4.5796   -0.4666   -2.1157 C   0  0  0  0  0  0  0  0  0  0  0  0
   -4.1408   -0.4640   -0.7525 C   0  0  0  0  0  0  0  0  0  0  0  0
   -3.7154   -0.8157   -3.1418 C   0  0  0  0  0  0  0  0  0  0  0  0
   -2.3888   -1.0702   -2.8589 C   0  0  0  0  0  0  0  0  0  0  0  0
   -0.8468    1.9516   -2.4017 C   0  0  0  0  0  0  0  0  0  0  0  0
   -1.4434    3.1892   -2.4949 C   0  0  0  0  0  0  0  0  0  0  0  0
    0.4836    2.0969    1.2484 C   0  0  0  0  0  0  0  0  0  0  0  0
    1.0580    0.8501    1.6079 C   0  0  0  0  0  0  0  0  0  0  0  0
    1.7171    0.5966    2.8116 C   0  0  0  0  0  0  0  0  0  0  0  0
    1.8125    1.5925    3.7561 C   0  0  0  0  0  0  0  0  0  0  0  0
    0.8475    5.8075    5.0864 H   0  0  0  0  0  0  0  0  0  0  0  0
    1.8476    3.5939    5.4385 H   0  0  0  0  0  0  0  0  0  0  0  0
   -0.3029    6.3212    3.0367 H   0  0  0  0  0  0  0  0  0  0  0  0
   -1.3624    6.6764    1.3842 H   0  0  0  0  0  0  0  0  0  0  0  0
   -2.4722    7.1865   -0.6852 H   0  0  0  0  0  0  0  0  0  0  0  0
   -2.5187    5.5508   -2.5101 H   0  0  0  0  0  0  0  0  0  0  0  0
    2.3650    0.9645   -1.3868 H   0  0  0  0  0  0  0  0  0  0  0  0
    4.4191   -0.3574   -1.5924 H   0  0  0  0  0  0  0  0  0  0  0  0
    6.4739   -1.6789   -1.8030 H   0  0  0  0  0  0  0  0  0  0  0  0
    8.5436   -3.0126   -2.0089 H   0  0  0  0  0  0  0  0  0  0  0  0
    9.6520   -5.1975   -2.2705 H   0  0  0  0  0  0  0  0  0  0  0  0
    8.3002   -7.2702   -2.4414 H   0  0  0  0  0  0  0  0  0  0  0  0
    5.8410   -7.1577   -2.3512 H   0  0  0  0  0  0  0  0  0  0  0  0
    3.7693   -5.8245   -2.1443 H   0  0  0  0  0  0  0  0  0  0  0  0
    1.7169   -4.5020   -1.9373 H   0  0  0  0  0  0  0  0  0  0  0  0
   -0.3383   -3.1744   -1.7531 H   0  0  0  0  0  0  0  0  0  0  0  0
   -0.6142   -2.0988    0.7784 H   0  0  0  0  0  0  0  0  0  0  0  0
   -0.0881   -2.2746    3.1120 H   0  0  0  0  0  0  0  0  0  0  0  0
   -1.6024   -1.3614    4.8161 H   0  0  0  0  0  0  0  0  0  0  0  0
   -6.4944    0.8194    2.4692 H   0  0  0  0  0  0  0  0  0  0  0  0
   -5.8307    0.6881    4.7873 H   0  0  0  0  0  0  0  0  0  0  0  0
   -3.6659   -0.2887    5.4154 H   0  0  0  0  0  0  0  0  0  0  0  0
   -7.1407    0.5746    0.5606 H   0  0  0  0  0  0  0  0  0  0  0  0
   -7.8031    0.5373   -1.7572 H   0  0  0  0  0  0  0  0  0  0  0  0
   -6.2123   -0.1282   -3.5014 H   0  0  0  0  0  0  0  0  0  0  0  0
   -4.0445   -0.8357   -4.1777 H   0  0  0  0  0  0  0  0  0  0  0  0
   -1.7075   -1.2505   -3.6897 H   0  0  0  0  0  0  0  0  0  0  0  0
   -0.8607    1.3129   -3.2831 H   0  0  0  0  0  0  0  0  0  0  0  0
   -1.9249    3.4686   -3.4287 H   0  0  0  0  0  0  0  0  0  0  0  0
    0.9841   -0.0090    0.9594 H   0  0  0  0  0  0  0  0  0  0  0  0
    2.1352   -0.3873    3.0036 H   0  0  0  0  0  0  0  0  0  0  0  0
    2.3228    1.3845    4.6930 H   0  0  0  0  0  0  0  0  0  0  0  0
  1  2  4  0
  2  3  4  0
  3  4  4  0
  4  5  4  0
  5  6  4  0
  5  7  4  0
  7  8  4  0
  8  9  4  0
  9 10  4  0
 10 11  4  0
 11 12  4  0
 12 13  4  0
 13 14  4  0
 14 15  1  0
 15 16  4  0
 16 17  4  0
 17 18  4  0
 18 19  4  0
 19 20  4  0
 20 21  4  0
 21 22  4  0
 22 23  4  0
 23 24  4  0
 24 25  4  0
 25 26  4  0
 26 27  4  0
 27 28  4  0
 28 29  4  0
 29 30  4  0
 30 31  4  0
 31 32  4  0
 32 33  1  0
 33 34  4  0
 34 35  4  0
 35 36  4  0
 36 37  4  0
 37 38  4  0
 38 39  4  0
 39 40  4  0
 40 41  4  0
 41 42  4  0
 42 43  4  0
 43 44  4  0
 41 45  4  0
 45 46  4  0
 46 47  4  0
 47 48  4  0
 48 49  4  0
 49 50  4  0
 49 51  4  0
 51 52  4  0
 14 53  4  0
 53 54  4  0
 13 55  4  0
 55 56  4  0
 56 57  4  0
 57 58  4  0
  6  1  4  0
 12  7  4  0
 32 15  4  0
 52 33  4  0
 58  3  4  0
 55  4  4  0
 54 11  4  0
 30 17  4  0
 50 34  4  0
 28 19  4  0
 40 35  4  0
 50 45  4  0
 26 21  4  0
 44 39  4  0
  1 59  1  0
  2 60  1  0
  6 61  1  0
  8 62  1  0
  9 63  1  0
 10 64  1  0
 16 65  1  0
 18 66  1  0
 20 67  1  0
 22 68  1  0
 23 69  1  0
 24 70  1  0
 25 71  1  0
 27 72  1  0
 29 73  1  0
 31 74  1  0
 36 75  1  0
 37 76  1  0
 38 77  1  0
 42 78  1  0
 43 79  1  0
 44 80  1  0
 46 81  1  0
 47 82  1  0
 48 83  1  0
 51 84  1  0
 52 85  1  0
 53 86  1  0
 54 87  1  0
 56 88  1  0
 57 89  1  0
 58 90  1  0
M  END
