
     RDKit          3D

 96109  0  0  0  0  0  0  0  0999 V2000
   -3.4484   -5.7035    5.4438 C   0  0  0  0  0  0  0  0  0  0  0  0
   -3.5332   -5.7067    4.0508 C   0  0  0  0  0  0  0  0  0  0  0  0
   -3.1069   -4.5970    3.3027 C   0  0  0  0  0  0  0  0  0  0  0  0
   -3.1844   -4.5851    1.9002 C   0  0  0  0  0  0  0  0  0  0  0  0
   -2.7574   -3.4736    1.1546 C   0  0  0  0  0  0  0  0  0  0  0  0
   -2.8295   -3.4543   -0.2458 C   0  0  0  0  0  0  0  0  0  0  0  0
   -2.3984   -2.3312   -0.9749 C   0  0  0  0  0  0  0  0  0  0  0  0
   -2.4607   -2.2818   -2.3699 C   0  0  0  0  0  0  0  0  0  0  0  0
   -2.0212   -1.1458   -3.0595 C   0  0  0  0  0  0  0  0  0  0  0  0
   -2.0976   -1.0915   -4.4603 C   0  0  0  0  0  0  0  0  0  0  0  0
   -1.6763    0.0400   -5.1448 C   0  0  0  0  0  0  0  0  0  0  0  0
   -1.1620    1.1150   -4.4308 C   0  0  0  0  0  0  0  0  0  0  0  0
   -1.0521    1.0727   -3.0241 C   0  0  0  0  0  0  0  0  0  0  0  0
   -0.4558    2.2353   -2.3172 C   0  0  0  0  0  0  0  0  0  0  0  0
   -1.2715    2.9913   -1.4489 C   0  0  0  0  0  0  0  0  0  0  0  0
   -0.7878    4.1098   -0.7514 C   0  0  0  0  0  0  0  0  0  0  0  0
   -1.6133    4.8515    0.1107 C   0  0  0  0  0  0  0  0  0  0  0  0
   -1.1286    5.9708    0.8082 C   0  0  0  0  0  0  0  0  0  0  0  0
   -1.9550    6.7149    1.6677 C   0  0  0  0  0  0  0  0  0  0  0  0
   -1.4692    7.8334    2.3652 C   0  0  0  0  0  0  0  0  0  0  0  0
   -2.2951    8.5775    3.2241 C   0  0  0  0  0  0  0  0  0  0  0  0
   -1.7976    9.6864    3.9103 C   0  0  0  0  0  0  0  0  0  0  0  0
   -0.4688   10.0655    3.7471 C   0  0  0  0  0  0  0  0  0  0  0  0
    0.3645    9.3362    2.8975 C   0  0  0  0  0  0  0  0  0  0  0  0
   -0.1216    8.2174    2.1998 C   0  0  0  0  0  0  0  0  0  0  0  0
    0.7036    7.4718    1.3411 C   0  0  0  0  0  0  0  0  0  0  0  0
    0.2162    6.3542    0.6423 C   0  0  0  0  0  0  0  0  0  0  0  0
    1.0411    5.6101   -0.2182 C   0  0  0  0  0  0  0  0  0  0  0  0
    0.5537    4.4934   -0.9184 C   0  0  0  0  0  0  0  0  0  0  0  0
    1.3755    3.7493   -1.7803 C   0  0  0  0  0  0  0  0  0  0  0  0
    0.8972    2.6260   -2.4882 C   0  0  0  0  0  0  0  0  0  0  0  0
    1.8336    1.9110   -3.3897 C   0  0  0  0  0  0  0  0  0  0  0  0
    2.3065    0.6192   -3.0883 C   0  0  0  0  0  0  0  0  0  0  0  0
    1.9613    0.0027   -1.9388 N   0  0  0  0  0  0  0  0  0  0  0  0
    2.3736   -1.2466   -1.6820 C   0  0  0  0  0  0  0  0  0  0  0  0
    1.9716   -1.8628   -0.5065 C   0  0  0  0  0  0  0  0  0  0  0  0
    2.3588   -3.1723   -0.1763 C   0  0  0  0  0  0  0  0  0  0  0  0
    1.9394   -3.7818    1.0178 C   0  0  0  0  0  0  0  0  0  0  0  0
    2.3260   -5.0916    1.3449 C   0  0  0  0  0  0  0  0  0  0  0  0
    1.9072   -5.7022    2.5384 C   0  0  0  0  0  0  0  0  0  0  0  0
    2.2996   -7.0048    2.8492 C   0  0  0  0  0  0  0  0  0  0  0  0
    3.1148   -7.7130    1.9718 C   0  0  0  0  0  0  0  0  0  0  0  0
    3.5393   -7.1198    0.7819 C   0  0  0  0  0  0  0  0  0  0  0  0
    3.1531   -5.8097    0.4547 C   0  0  0  0  0  0  0  0  0  0  0  0
    3.5723   -5.1983   -0.7386 C   0  0  0  0  0  0  0  0  0  0  0  0
    3.1849   -3.8877   -1.0634 C   0  0  0  0  0  0  0  0  0  0  0  0
    3.6002   -3.2703   -2.2524 C   0  0  0  0  0  0  0  0  0  0  0  0
    3.1977   -1.9588   -2.5629 C   0  0  0  0  0  0  0  0  0  0  0  0
    3.5916   -1.3172   -3.7414 C   0  0  0  0  0  0  0  0  0  0  0  0
    3.1508   -0.0182   -4.0219 C   0  0  0  0  0  0  0  0  0  0  0  0
    3.5360    0.6312   -5.2064 C   0  0  0  0  0  0  0  0  0  0  0  0
    3.0858    1.9157   -5.4829 C   0  0  0  0  0  0  0  0  0  0  0  0
    2.2391    2.5500   -4.5814 C   0  0  0  0  0  0  0  0  0  0  0  0
   -1.5072   -0.0615   -2.3157 C   0  0  0  0  0  0  0  0  0  0  0  0
   -1.4672   -0.1165   -0.9629 N   0  0  0  0  0  0  0  0  0  0  0  0
   -1.8889   -1.2090   -0.3096 C   0  0  0  0  0  0  0  0  0  0  0  0
   -1.8202   -1.2370    1.0757 C   0  0  0  0  0  0  0  0  0  0  0  0
   -2.2430   -2.3483    1.8253 C   0  0  0  0  0  0  0  0  0  0  0  0
   -2.1630   -2.3599    3.2278 C   0  0  0  0  0  0  0  0  0  0  0  0
   -2.5885   -3.4697    3.9753 C   0  0  0  0  0  0  0  0  0  0  0  0
   -2.5093   -3.4818    5.3773 C   0  0  0  0  0  0  0  0  0  0  0  0
   -2.9368   -4.5921    6.1064 C   0  0  0  0  0  0  0  0  0  0  0  0
   -3.7819   -6.5691    6.0099 H   0  0  0  0  0  0  0  0  0  0  0  0
   -3.9357   -6.5851    3.5515 H   0  0  0  0  0  0  0  0  0  0  0  0
   -3.5840   -5.4555    1.3829 H   0  0  0  0  0  0  0  0  0  0  0  0
   -3.2236   -4.3188   -0.7761 H   0  0  0  0  0  0  0  0  0  0  0  0
   -2.8548   -3.1318   -2.9217 H   0  0  0  0  0  0  0  0  0  0  0  0
   -2.4946   -1.9316   -5.0255 H   0  0  0  0  0  0  0  0  0  0  0  0
   -1.7436    0.0852   -6.2282 H   0  0  0  0  0  0  0  0  0  0  0  0
   -0.8340    1.9995   -4.9731 H   0  0  0  0  0  0  0  0  0  0  0  0
   -2.3080    2.6849   -1.3103 H   0  0  0  0  0  0  0  0  0  0  0  0
   -2.6507    4.5483    0.2412 H   0  0  0  0  0  0  0  0  0  0  0  0
   -2.9941    6.4170    1.7956 H   0  0  0  0  0  0  0  0  0  0  0  0
   -3.3361    8.2955    3.3651 H   0  0  0  0  0  0  0  0  0  0  0  0
   -2.4481   10.2525    4.5719 H   0  0  0  0  0  0  0  0  0  0  0  0
   -0.0792   10.9284    4.2809 H   0  0  0  0  0  0  0  0  0  0  0  0
    1.4006    9.6470    2.7833 H   0  0  0  0  0  0  0  0  0  0  0  0
    1.7438    7.7655    1.2143 H   0  0  0  0  0  0  0  0  0  0  0  0
    2.0817    5.9032   -0.3446 H   0  0  0  0  0  0  0  0  0  0  0  0
    2.4191    4.0373   -1.8997 H   0  0  0  0  0  0  0  0  0  0  0  0
    1.3298   -1.2953    0.1650 H   0  0  0  0  0  0  0  0  0  0  0  0
    1.3028   -3.2258    1.7043 H   0  0  0  0  0  0  0  0  0  0  0  0
    1.2696   -5.1649    3.2370 H   0  0  0  0  0  0  0  0  0  0  0  0
    1.9679   -7.4647    3.7763 H   0  0  0  0  0  0  0  0  0  0  0  0
    3.4213   -8.7275    2.2121 H   0  0  0  0  0  0  0  0  0  0  0  0
    4.1762   -7.6905    0.1097 H   0  0  0  0  0  0  0  0  0  0  0  0
    4.2104   -5.7529   -1.4242 H   0  0  0  0  0  0  0  0  0  0  0  0
    4.2398   -3.8127   -2.9453 H   0  0  0  0  0  0  0  0  0  0  0  0
    4.2373   -1.8348   -4.4467 H   0  0  0  0  0  0  0  0  0  0  0  0
    4.1908    0.1364   -5.9203 H   0  0  0  0  0  0  0  0  0  0  0  0
    3.3854    2.4180   -6.3988 H   0  0  0  0  0  0  0  0  0  0  0  0
    1.8746    3.5502   -4.8096 H   0  0  0  0  0  0  0  0  0  0  0  0
   -1.4200   -0.3589    1.5797 H   0  0  0  0  0  0  0  0  0  0  0  0
   -1.7590   -1.4904    3.7438 H   0  0  0  0  0  0  0  0  0  0  0  0
   -2.1123   -2.6224    5.9131 H   0  0  0  0  0  0  0  0  0  0  0  0
   -2.8697   -4.5874    7.1911 H   0  0  0  0  0  0  0  0  0  0  0  0
  1  2  4  0
  2  3  4  0
  3  4  4  0
  4  5  4  0
  5  6  4  0
  6  7  4  0
  7  8  4  0
  8  9  4  0
  9 10  4  0
 10 11  4  0
 11 12  4  0
 12 13  4  0
 13 14  1  0
 14 15  4  0
 15 16  4  0
 16 17  4  0
 17 18  4  0
 18 19  4  0
 19 20  4  0
 20 21  4  0
 21 22  4  0
 22 23  4  0
 23 24  4  0
 24 25  4  0
 25 26  4  0
 26 27  4  0
 27 28  4  0
 28 29  4  0
 29 30  4  0
 30 31  4  0
 31 32  1  0
 32 33  4  0
 33 34  4  0
 34 35  4  0
 35 36  4  0
 36 37  4  0
 37 38  4  0
 38 39  4  0
 39 40  4  0
 40 41  4  0
 41 42  4  0
 42 43  4  0
 43 44  4  0
 44 45  4  0
 45 46  4  0
 46 47  4  0
 47 48  4  0
 48 49  4  0
 49 50  4  0
 50 51  4  0
 51 52  4  0
 52 53  4  0
 13 54  4  0
 54 55  4  0
 55 56  4  0
 56 57  4  0
 57 58  4  0
 58 59  4  0
 59 60  4  0
 60 61  4  0
 61 62  4  0
 62  1  4  0
 60  3  4  0
 58  5  4  0
 56  7  4  0
 54  9  4  0
 31 14  4  0
 53 32  4  0
 29 16  4  0
 50 33  4  0
 27 18  4  0
 48 35  4  0
 25 20  4  0
 46 37  4  0
 44 39  4  0
  1 63  1  0
  2 64  1  0
  4 65  1  0
  6 66  1  0
  8 67  1  0
 10 68  1  0
 11 69  1  0
 12 70  1  0
 15 71  1  0
 17 72  1  0
 19 73  1  0
 21 74  1  0
 22 75  1  0
 23 76  1  0
 24 77  1  0
 26 78  1  0
 28 79  1  0
 30 80  1  0
 36 81  1  0
 38 82  1  0
 40 83  1  0
 41 84  1  0
 42 85  1  0
 43 86  1  0
 45 87  1  0
 47 88  1  0
 49 89  1  0
 51 90  1  0
 52 91  1  0
 53 92  1  0
 57 93  1  0
 59 94  1  0
 61 95  1  0
 62 96  1  0
M  END
