
     RDKit          3D

 96109  0  0  0  0  0  0  0  0999 V2000
    6.9777   -8.7485    1.6289 C   0  0  0  0  0  0  0  0  0  0  0  0
    6.0882   -7.9753    2.3763 C   0  0  0  0  0  0  0  0  0  0  0  0
    5.6432   -6.7308    1.9006 C   0  0  0  0  0  0  0  0  0  0  0  0
    4.7481   -5.9405    2.6404 C   0  0  0  0  0  0  0  0  0  0  0  0
    4.3047   -4.6960    2.1622 C   0  0  0  0  0  0  0  0  0  0  0  0
    3.4109   -3.9022    2.8953 C   0  0  0  0  0  0  0  0  0  0  0  0
    2.9763   -2.6591    2.4010 C   0  0  0  0  0  0  0  0  0  0  0  0
    2.0844   -1.8504    3.1142 C   0  0  0  0  0  0  0  0  0  0  0  0
    1.6756   -0.6207    2.5872 C   0  0  0  0  0  0  0  0  0  0  0  0
    0.7860    0.2207    3.2738 C   0  0  0  0  0  0  0  0  0  0  0  0
    0.4017    1.4401    2.7170 C   0  0  0  0  0  0  0  0  0  0  0  0
    0.8876    1.8334    1.4648 C   0  0  0  0  0  0  0  0  0  0  0  0
    0.4852    3.1154    0.8555 C   0  0  0  0  0  0  0  0  0  0  0  0
    1.4662    4.1135    0.6794 C   0  0  0  0  0  0  0  0  0  0  0  0
    1.1660    5.3635    0.1142 C   0  0  0  0  0  0  0  0  0  0  0  0
    2.1526    6.3493   -0.0550 C   0  0  0  0  0  0  0  0  0  0  0  0
    1.8509    7.5985   -0.6226 C   0  0  0  0  0  0  0  0  0  0  0  0
    2.8383    8.5835   -0.7919 C   0  0  0  0  0  0  0  0  0  0  0  0
    2.5372    9.8324   -1.3598 C   0  0  0  0  0  0  0  0  0  0  0  0
    3.5239   10.8178   -1.5288 C   0  0  0  0  0  0  0  0  0  0  0  0
    3.2090   12.0540   -2.0950 C   0  0  0  0  0  0  0  0  0  0  0  0
    1.9047   12.3208   -2.4993 C   0  0  0  0  0  0  0  0  0  0  0  0
    0.9132   11.3519   -2.3379 C   0  0  0  0  0  0  0  0  0  0  0  0
    1.2143   10.1030   -1.7696 C   0  0  0  0  0  0  0  0  0  0  0  0
    0.2280    9.1173   -1.6002 C   0  0  0  0  0  0  0  0  0  0  0  0
    0.5303    7.8683   -1.0313 C   0  0  0  0  0  0  0  0  0  0  0  0
   -0.4553    6.8814   -0.8611 C   0  0  0  0  0  0  0  0  0  0  0  0
   -0.1524    5.6328   -0.2919 C   0  0  0  0  0  0  0  0  0  0  0  0
   -1.1355    4.6450   -0.1208 C   0  0  0  0  0  0  0  0  0  0  0  0
   -0.8422    3.3873    0.4460 C   0  0  0  0  0  0  0  0  0  0  0  0
   -1.9342    2.4056    0.5753 C   0  0  0  0  0  0  0  0  0  0  0  0
   -2.9775    2.6154    1.4848 C   0  0  0  0  0  0  0  0  0  0  0  0
   -4.0056    1.6818    1.6072 C   0  0  0  0  0  0  0  0  0  0  0  0
   -4.0078    0.5246    0.8126 C   0  0  0  0  0  0  0  0  0  0  0  0
   -5.0234   -0.4332    0.9078 C   0  0  0  0  0  0  0  0  0  0  0  0
   -4.9897   -1.5751    0.0998 C   0  0  0  0  0  0  0  0  0  0  0  0
   -5.9881   -2.5631    0.1688 C   0  0  0  0  0  0  0  0  0  0  0  0
   -5.9343   -3.7005   -0.6497 C   0  0  0  0  0  0  0  0  0  0  0  0
   -6.9234   -4.6969   -0.5928 C   0  0  0  0  0  0  0  0  0  0  0  0
   -6.8636   -5.8342   -1.4151 C   0  0  0  0  0  0  0  0  0  0  0  0
   -7.8512   -6.8319   -1.3599 C   0  0  0  0  0  0  0  0  0  0  0  0
   -7.7775   -7.9563   -2.1837 C   0  0  0  0  0  0  0  0  0  0  0  0
   -6.7165   -8.0976   -3.0726 C   0  0  0  0  0  0  0  0  0  0  0  0
   -5.7275   -7.1147   -3.1391 C   0  0  0  0  0  0  0  0  0  0  0  0
   -5.7875   -5.9774   -2.3167 C   0  0  0  0  0  0  0  0  0  0  0  0
   -4.8001   -4.9796   -2.3719 C   0  0  0  0  0  0  0  0  0  0  0  0
   -4.8607   -3.8426   -1.5484 C   0  0  0  0  0  0  0  0  0  0  0  0
   -3.8729   -2.8426   -1.6009 C   0  0  0  0  0  0  0  0  0  0  0  0
   -3.9160   -1.7128   -0.7957 C   0  0  0  0  0  0  0  0  0  0  0  0
   -2.9380   -0.7957   -0.8958 N   0  0  0  0  0  0  0  0  0  0  0  0
   -2.9736    0.2969   -0.1129 C   0  0  0  0  0  0  0  0  0  0  0  0
   -1.9600    1.2417   -0.2128 C   0  0  0  0  0  0  0  0  0  0  0  0
    1.7822    0.9754    0.7996 C   0  0  0  0  0  0  0  0  0  0  0  0
    2.1871   -0.2412    1.3338 C   0  0  0  0  0  0  0  0  0  0  0  0
    3.0486   -1.0094    0.6442 N   0  0  0  0  0  0  0  0  0  0  0  0
    3.4342   -2.1902    1.1581 C   0  0  0  0  0  0  0  0  0  0  0  0
    4.3185   -2.9845    0.4417 C   0  0  0  0  0  0  0  0  0  0  0  0
    4.7655   -4.2302    0.9166 C   0  0  0  0  0  0  0  0  0  0  0  0
    5.6607   -5.0196    0.1756 C   0  0  0  0  0  0  0  0  0  0  0  0
    6.1056   -6.2640    0.6515 C   0  0  0  0  0  0  0  0  0  0  0  0
    7.0006   -7.0537   -0.0887 C   0  0  0  0  0  0  0  0  0  0  0  0
    7.4335   -8.2881    0.3975 C   0  0  0  0  0  0  0  0  0  0  0  0
    7.3137   -9.7094    2.0091 H   0  0  0  0  0  0  0  0  0  0  0  0
    5.7436   -8.3529    3.3364 H   0  0  0  0  0  0  0  0  0  0  0  0
    4.3917   -6.3014    3.6036 H   0  0  0  0  0  0  0  0  0  0  0  0
    3.0475   -4.2530    3.8593 H   0  0  0  0  0  0  0  0  0  0  0  0
    1.7052   -2.1785    4.0789 H   0  0  0  0  0  0  0  0  0  0  0  0
    0.3875   -0.0672    4.2436 H   0  0  0  0  0  0  0  0  0  0  0  0
   -0.2853    2.0814    3.2651 H   0  0  0  0  0  0  0  0  0  0  0  0
    2.4877    3.9074    0.9991 H   0  0  0  0  0  0  0  0  0  0  0  0
    3.1736    6.1392    0.2590 H   0  0  0  0  0  0  0  0  0  0  0  0
    3.8590    8.3750   -0.4763 H   0  0  0  0  0  0  0  0  0  0  0  0
    4.5492   10.6283   -1.2190 H   0  0  0  0  0  0  0  0  0  0  0  0
    3.9827   12.8071   -2.2198 H   0  0  0  0  0  0  0  0  0  0  0  0
    1.6573   13.2828   -2.9405 H   0  0  0  0  0  0  0  0  0  0  0  0
   -0.1004   11.5798   -2.6601 H   0  0  0  0  0  0  0  0  0  0  0  0
   -0.7921    9.3267   -1.9170 H   0  0  0  0  0  0  0  0  0  0  0  0
   -1.4759    7.0879   -1.1785 H   0  0  0  0  0  0  0  0  0  0  0  0
   -2.1554    4.8491   -0.4462 H   0  0  0  0  0  0  0  0  0  0  0  0
   -2.9879    3.5057    2.1107 H   0  0  0  0  0  0  0  0  0  0  0  0
   -4.8013    1.8619    2.3258 H   0  0  0  0  0  0  0  0  0  0  0  0
   -5.8400   -0.2908    1.6118 H   0  0  0  0  0  0  0  0  0  0  0  0
   -6.8137   -2.4433    0.8676 H   0  0  0  0  0  0  0  0  0  0  0  0
   -7.7537   -4.5868    0.1024 H   0  0  0  0  0  0  0  0  0  0  0  0
   -8.6882   -6.7392   -0.6716 H   0  0  0  0  0  0  0  0  0  0  0  0
   -8.5486   -8.7204   -2.1303 H   0  0  0  0  0  0  0  0  0  0  0  0
   -6.6568   -8.9721   -3.7151 H   0  0  0  0  0  0  0  0  0  0  0  0
   -4.9060   -7.2433   -3.8404 H   0  0  0  0  0  0  0  0  0  0  0  0
   -3.9706   -5.0903   -3.0684 H   0  0  0  0  0  0  0  0  0  0  0  0
   -3.0370   -2.9413   -2.2910 H   0  0  0  0  0  0  0  0  0  0  0  0
   -1.1614    1.0597   -0.9303 H   0  0  0  0  0  0  0  0  0  0  0  0
    2.1729    1.2583   -0.1766 H   0  0  0  0  0  0  0  0  0  0  0  0
    4.6646   -2.6142   -0.5214 H   0  0  0  0  0  0  0  0  0  0  0  0
    6.0177   -4.6598   -0.7880 H   0  0  0  0  0  0  0  0  0  0  0  0
    7.3684   -6.7112   -1.0535 H   0  0  0  0  0  0  0  0  0  0  0  0
    8.1262   -8.8884   -0.1862 H   0  0  0  0  0  0  0  0  0  0  0  0
  1  2  4  0
  2  3  4  0
  3  4  4  0
  4  5  4  0
  5  6  4  0
  6  7  4  0
  7  8  4  0
  8  9  4  0
  9 10  4  0
 10 11  4  0
 11 12  4  0
 12 13  1  0
 13 14  4  0
 14 15  4  0
 15 16  4  0
 16 17  4  0
 17 18  4  0
 18 19  4  0
 19 20  4  0
 20 21  4  0
 21 22  4  0
 22 23  4  0
 23 24  4  0
 24 25  4  0
 25 26  4  0
 26 27  4  0
 27 28  4  0
 28 29  4  0
 29 30  4  0
 30 31  1  0
 31 32  4  0
 32 33  4  0
 33 34  4  0
 34 35  4  0
 35 36  4  0
 36 37  4  0
 37 38  4  0
 38 39  4  0
 39 40  4  0
 40 41  4  0
 41 42  4  0
 42 43  4  0
 43 44  4  0
 44 45  4  0
 45 46  4  0
 46 47  4  0
 47 48  4  0
 48 49  4  0
 49 50  4  0
 50 51  4  0
 51 52  4  0
 12 53  4  0
 53 54  4  0
 54 55  4  0
 55 56  4  0
 56 57  4  0
 57 58  4  0
 58 59  4  0
 59 60  4  0
 60 61  4  0
 61 62  4  0
 62  1  4  0
 60  3  4  0
 58  5  4  0
 56  7  4  0
 54  9  4  0
 30 13  4  0
 52 31  4  0
 28 15  4  0
 51 34  4  0
 26 17  4  0
 49 36  4  0
 24 19  4  0
 47 38  4  0
 45 40  4  0
  1 63  1  0
  2 64  1  0
  4 65  1  0
  6 66  1  0
  8 67  1  0
 10 68  1  0
 11 69  1  0
 14 70  1  0
 16 71  1  0
 18 72  1  0
 20 73  1  0
 21 74  1  0
 22 75  1  0
 23 76  1  0
 25 77  1  0
 27 78  1  0
 29 79  1  0
 32 80  1  0
 33 81  1  0
 35 82  1  0
 37 83  1  0
 39 84  1  0
 41 85  1  0
 42 86  1  0
 43 87  1  0
 44 88  1  0
 46 89  1  0
 48 90  1  0
 52 91  1  0
 53 92  1  0
 57 93  1  0
 59 94  1  0
 61 95  1  0
 62 96  1  0
M  END
