
     RDKit          3D

 96109  0  0  0  0  0  0  0  0999 V2000
  -10.3290   -7.1318   -0.5881 C   0  0  0  0  0  0  0  0  0  0  0  0
  -10.6530   -6.5050    0.6094 C   0  0  0  0  0  0  0  0  0  0  0  0
   -9.8712   -5.4419    1.0722 C   0  0  0  0  0  0  0  0  0  0  0  0
   -8.7662   -4.9845    0.3663 C   0  0  0  0  0  0  0  0  0  0  0  0
   -8.0479   -3.9585    0.8561 N   0  0  0  0  0  0  0  0  0  0  0  0
   -6.9786   -3.5184    0.1706 C   0  0  0  0  0  0  0  0  0  0  0  0
   -6.2384   -2.4604    0.6780 C   0  0  0  0  0  0  0  0  0  0  0  0
   -5.1094   -1.9468    0.0161 C   0  0  0  0  0  0  0  0  0  0  0  0
   -4.3746   -0.8742    0.5470 C   0  0  0  0  0  0  0  0  0  0  0  0
   -3.2487   -0.3595   -0.1160 C   0  0  0  0  0  0  0  0  0  0  0  0
   -2.5154    0.7154    0.4153 C   0  0  0  0  0  0  0  0  0  0  0  0
   -1.3882    1.2347   -0.2430 C   0  0  0  0  0  0  0  0  0  0  0  0
   -0.6426    2.3688    0.3336 C   0  0  0  0  0  0  0  0  0  0  0  0
   -1.2813    3.6248    0.4017 C   0  0  0  0  0  0  0  0  0  0  0  0
   -0.6441    4.7579    0.9317 C   0  0  0  0  0  0  0  0  0  0  0  0
   -1.2923    6.0027    0.9938 C   0  0  0  0  0  0  0  0  0  0  0  0
   -0.6537    7.1355    1.5259 C   0  0  0  0  0  0  0  0  0  0  0  0
   -1.3019    8.3806    1.5882 C   0  0  0  0  0  0  0  0  0  0  0  0
   -0.6638    9.5128    2.1213 C   0  0  0  0  0  0  0  0  0  0  0  0
   -1.3115   10.7576    2.1838 C   0  0  0  0  0  0  0  0  0  0  0  0
   -0.6644   11.8734    2.7171 C   0  0  0  0  0  0  0  0  0  0  0  0
    0.6375   11.7592    3.1944 C   0  0  0  0  0  0  0  0  0  0  0  0
    1.2944   10.5290    3.1389 C   0  0  0  0  0  0  0  0  0  0  0  0
    0.6567    9.3968    2.6049 C   0  0  0  0  0  0  0  0  0  0  0  0
    1.3039    8.1515    2.5417 C   0  0  0  0  0  0  0  0  0  0  0  0
    0.6650    7.0195    2.0076 C   0  0  0  0  0  0  0  0  0  0  0  0
    1.3120    5.7737    1.9435 C   0  0  0  0  0  0  0  0  0  0  0  0
    0.6722    4.6419    1.4103 C   0  0  0  0  0  0  0  0  0  0  0  0
    1.3158    3.3953    1.3452 C   0  0  0  0  0  0  0  0  0  0  0  0
    0.6827    2.2515    0.8155 C   0  0  0  0  0  0  0  0  0  0  0  0
    1.4299    0.9803    0.7987 C   0  0  0  0  0  0  0  0  0  0  0  0
    2.5492    0.8204   -0.0352 C   0  0  0  0  0  0  0  0  0  0  0  0
    3.2775   -0.3820   -0.0683 C   0  0  0  0  0  0  0  0  0  0  0  0
    4.3927   -0.5402   -0.9077 C   0  0  0  0  0  0  0  0  0  0  0  0
    5.1198   -1.7419   -0.9411 C   0  0  0  0  0  0  0  0  0  0  0  0
    6.2359   -1.9019   -1.7814 C   0  0  0  0  0  0  0  0  0  0  0  0
    6.9667   -3.0806   -1.8287 C   0  0  0  0  0  0  0  0  0  0  0  0
    8.0230   -3.1642   -2.6556 N   0  0  0  0  0  0  0  0  0  0  0  0
    8.7321   -4.3059   -2.7031 C   0  0  0  0  0  0  0  0  0  0  0  0
    9.8238   -4.3964   -3.5566 C   0  0  0  0  0  0  0  0  0  0  0  0
   10.5954   -5.5591   -3.6454 C   0  0  0  0  0  0  0  0  0  0  0  0
   10.2745   -6.6635   -2.8649 C   0  0  0  0  0  0  0  0  0  0  0  0
    9.1842   -6.6001   -2.0000 C   0  0  0  0  0  0  0  0  0  0  0  0
    8.4119   -5.4276   -1.9153 C   0  0  0  0  0  0  0  0  0  0  0  0
    7.3107   -5.3289   -1.0582 C   0  0  0  0  0  0  0  0  0  0  0  0
    6.5671   -4.1448   -1.0026 C   0  0  0  0  0  0  0  0  0  0  0  0
    5.4536   -4.0061   -0.1548 C   0  0  0  0  0  0  0  0  0  0  0  0
    4.7226   -2.8100   -0.1158 C   0  0  0  0  0  0  0  0  0  0  0  0
    3.6070   -2.6544    0.7240 C   0  0  0  0  0  0  0  0  0  0  0  0
    2.8795   -1.4532    0.7571 C   0  0  0  0  0  0  0  0  0  0  0  0
    1.7646   -1.2952    1.5931 C   0  0  0  0  0  0  0  0  0  0  0  0
    1.0518   -0.0932    1.6146 C   0  0  0  0  0  0  0  0  0  0  0  0
   -1.0052    0.6560   -1.4593 C   0  0  0  0  0  0  0  0  0  0  0  0
   -1.7224   -0.4152   -1.9998 C   0  0  0  0  0  0  0  0  0  0  0  0
   -2.8465   -0.9326   -1.3392 C   0  0  0  0  0  0  0  0  0  0  0  0
   -3.5802   -2.0073   -1.8688 C   0  0  0  0  0  0  0  0  0  0  0  0
   -4.7077   -2.5199   -1.2047 C   0  0  0  0  0  0  0  0  0  0  0  0
   -5.4477   -3.5906   -1.7269 C   0  0  0  0  0  0  0  0  0  0  0  0
   -6.5746   -4.0891   -1.0485 C   0  0  0  0  0  0  0  0  0  0  0  0
   -7.3281   -5.1562   -1.5506 C   0  0  0  0  0  0  0  0  0  0  0  0
   -8.4428   -5.6230   -0.8456 C   0  0  0  0  0  0  0  0  0  0  0  0
   -9.2255   -6.6929   -1.3166 C   0  0  0  0  0  0  0  0  0  0  0  0
  -10.9325   -7.9586   -0.9536 H   0  0  0  0  0  0  0  0  0  0  0  0
  -11.5112   -6.8376    1.1875 H   0  0  0  0  0  0  0  0  0  0  0  0
  -10.1305   -4.9564    2.0101 H   0  0  0  0  0  0  0  0  0  0  0  0
   -6.5583   -2.0251    1.6228 H   0  0  0  0  0  0  0  0  0  0  0  0
   -4.6853   -0.4317    1.4922 H   0  0  0  0  0  0  0  0  0  0  0  0
   -2.8207    1.1551    1.3637 H   0  0  0  0  0  0  0  0  0  0  0  0
   -2.2992    3.7164    0.0226 H   0  0  0  0  0  0  0  0  0  0  0  0
   -2.3117    6.0912    0.6218 H   0  0  0  0  0  0  0  0  0  0  0  0
   -2.3207    8.4709    1.2157 H   0  0  0  0  0  0  0  0  0  0  0  0
   -2.3293   10.8672    1.8161 H   0  0  0  0  0  0  0  0  0  0  0  0
   -1.1779   12.8304    2.7594 H   0  0  0  0  0  0  0  0  0  0  0  0
    1.1429   12.6269    3.6104 H   0  0  0  0  0  0  0  0  0  0  0  0
    2.3118   10.4601    3.5174 H   0  0  0  0  0  0  0  0  0  0  0  0
    2.3225    8.0628    2.9152 H   0  0  0  0  0  0  0  0  0  0  0  0
    2.3313    5.6829    2.3152 H   0  0  0  0  0  0  0  0  0  0  0  0
    2.3333    3.3022    1.7247 H   0  0  0  0  0  0  0  0  0  0  0  0
    2.8509    1.6475   -0.6763 H   0  0  0  0  0  0  0  0  0  0  0  0
    4.7004    0.2858   -1.5471 H   0  0  0  0  0  0  0  0  0  0  0  0
    6.5517   -1.0836   -2.4255 H   0  0  0  0  0  0  0  0  0  0  0  0
   10.0808   -3.5363   -4.1705 H   0  0  0  0  0  0  0  0  0  0  0  0
   11.4434   -5.5956   -4.3244 H   0  0  0  0  0  0  0  0  0  0  0  0
   10.8700   -7.5704   -2.9291 H   0  0  0  0  0  0  0  0  0  0  0  0
    8.9389   -7.4680   -1.3924 H   0  0  0  0  0  0  0  0  0  0  0  0
    7.0331   -6.1751   -0.4344 H   0  0  0  0  0  0  0  0  0  0  0  0
    5.1546   -4.8389    0.4786 H   0  0  0  0  0  0  0  0  0  0  0  0
    3.2986   -3.4809    1.3617 H   0  0  0  0  0  0  0  0  0  0  0  0
    1.4357   -2.1091    2.2355 H   0  0  0  0  0  0  0  0  0  0  0  0
    0.1904   -0.0020    2.2731 H   0  0  0  0  0  0  0  0  0  0  0  0
   -0.1381    1.0356   -1.9959 H   0  0  0  0  0  0  0  0  0  0  0  0
   -1.3916   -0.8425   -2.9437 H   0  0  0  0  0  0  0  0  0  0  0  0
   -3.2684   -2.4502   -2.8130 H   0  0  0  0  0  0  0  0  0  0  0  0
   -5.1467   -4.0423   -2.6702 H   0  0  0  0  0  0  0  0  0  0  0  0
   -7.0473   -5.6246   -2.4908 H   0  0  0  0  0  0  0  0  0  0  0  0
   -8.9779   -7.1880   -2.2527 H   0  0  0  0  0  0  0  0  0  0  0  0
  1  2  4  0
  2  3  4  0
  3  4  4  0
  4  5  4  0
  5  6  4  0
  6  7  4  0
  7  8  4  0
  8  9  4  0
  9 10  4  0
 10 11  4  0
 11 12  4  0
 12 13  1  0
 13 14  4  0
 14 15  4  0
 15 16  4  0
 16 17  4  0
 17 18  4  0
 18 19  4  0
 19 20  4  0
 20 21  4  0
 21 22  4  0
 22 23  4  0
 23 24  4  0
 24 25  4  0
 25 26  4  0
 26 27  4  0
 27 28  4  0
 28 29  4  0
 29 30  4  0
 30 31  1  0
 31 32  4  0
 32 33  4  0
 33 34  4  0
 34 35  4  0
 35 36  4  0
 36 37  4  0
 37 38  4  0
 38 39  4  0
 39 40  4  0
 40 41  4  0
 41 42  4  0
 42 43  4  0
 43 44  4  0
 44 45  4  0
 45 46  4  0
 46 47  4  0
 47 48  4  0
 48 49  4  0
 49 50  4  0
 50 51  4  0
 51 52  4  0
 12 53  4  0
 53 54  4  0
 54 55  4  0
 55 56  4  0
 56 57  4  0
 57 58  4  0
 58 59  4  0
 59 60  4  0
 60 61  4  0
 61 62  4  0
 62  1  4  0
 61  4  4  0
 59  6  4  0
 57  8  4  0
 55 10  4  0
 30 13  4  0
 52 31  4  0
 28 15  4  0
 50 33  4  0
 26 17  4  0
 48 35  4  0
 24 19  4  0
 46 37  4  0
 44 39  4  0
  1 63  1  0
  2 64  1  0
  3 65  1  0
  7 66  1  0
  9 67  1  0
 11 68  1  0
 14 69  1  0
 16 70  1  0
 18 71  1  0
 20 72  1  0
 21 73  1  0
 22 74  1  0
 23 75  1  0
 25 76  1  0
 27 77  1  0
 29 78  1  0
 32 79  1  0
 34 80  1  0
 36 81  1  0
 40 82  1  0
 41 83  1  0
 42 84  1  0
 43 85  1  0
 45 86  1  0
 47 87  1  0
 49 88  1  0
 51 89  1  0
 52 90  1  0
 53 91  1  0
 54 92  1  0
 56 93  1  0
 58 94  1  0
 60 95  1  0
 62 96  1  0
M  END
