
     RDKit          3D

 96109  0  0  0  0  0  0  0  0999 V2000
    3.6477    1.0711   -5.6796 C   0  0  0  0  0  0  0  0  0  0  0  0
    2.7082    1.9886   -5.2396 C   0  0  0  0  0  0  0  0  0  0  0  0
    2.1022    1.8041   -3.9975 C   0  0  0  0  0  0  0  0  0  0  0  0
    2.4177    0.6942   -3.1696 C   0  0  0  0  0  0  0  0  0  0  0  0
    3.3930   -0.2123   -3.6244 C   0  0  0  0  0  0  0  0  0  0  0  0
    3.9798   -0.0136   -4.8674 C   0  0  0  0  0  0  0  0  0  0  0  0
    3.8000   -1.2672   -2.9100 N   0  0  0  0  0  0  0  0  0  0  0  0
    3.2920   -1.4768   -1.6905 C   0  0  0  0  0  0  0  0  0  0  0  0
    3.7797   -2.5606   -0.9733 C   0  0  0  0  0  0  0  0  0  0  0  0
    3.3429   -2.8668    0.3245 C   0  0  0  0  0  0  0  0  0  0  0  0
    3.8491   -3.9697    1.0344 C   0  0  0  0  0  0  0  0  0  0  0  0
    3.4035   -4.2713    2.3319 C   0  0  0  0  0  0  0  0  0  0  0  0
    3.9055   -5.3734    3.0444 C   0  0  0  0  0  0  0  0  0  0  0  0
    3.4436   -5.6627    4.3293 C   0  0  0  0  0  0  0  0  0  0  0  0
    2.4741   -4.8561    4.9174 C   0  0  0  0  0  0  0  0  0  0  0  0
    1.9679   -3.7561    4.2236 C   0  0  0  0  0  0  0  0  0  0  0  0
    2.4268   -3.4488    2.9322 C   0  0  0  0  0  0  0  0  0  0  0  0
    1.9338   -2.3408    2.2242 C   0  0  0  0  0  0  0  0  0  0  0  0
    2.3808   -2.0430    0.9258 C   0  0  0  0  0  0  0  0  0  0  0  0
    1.8888   -0.9421    0.2064 C   0  0  0  0  0  0  0  0  0  0  0  0
    2.3120   -0.6505   -1.1148 C   0  0  0  0  0  0  0  0  0  0  0  0
    1.8237    0.4350   -1.8987 C   0  0  0  0  0  0  0  0  0  0  0  0
    0.7178    1.2976   -1.3990 C   0  0  0  0  0  0  0  0  0  0  0  0
    1.0515    2.5022   -0.7481 C   0  0  0  0  0  0  0  0  0  0  0  0
    0.0686    3.3817   -0.2682 C   0  0  0  0  0  0  0  0  0  0  0  0
    0.4130    4.5787    0.3795 C   0  0  0  0  0  0  0  0  0  0  0  0
   -0.5696    5.4579    0.8636 C   0  0  0  0  0  0  0  0  0  0  0  0
   -0.2238    6.6540    1.5138 C   0  0  0  0  0  0  0  0  0  0  0  0
   -1.2055    7.5323    2.0009 C   0  0  0  0  0  0  0  0  0  0  0  0
   -0.8605    8.7286    2.6509 C   0  0  0  0  0  0  0  0  0  0  0  0
   -1.8478    9.5906    3.1302 C   0  0  0  0  0  0  0  0  0  0  0  0
   -3.1913    9.2679    2.9663 C   0  0  0  0  0  0  0  0  0  0  0  0
   -3.5499    8.0831    2.3221 C   0  0  0  0  0  0  0  0  0  0  0  0
   -2.5680    7.2056    1.8335 C   0  0  0  0  0  0  0  0  0  0  0  0
   -2.9128    6.0101    1.1816 C   0  0  0  0  0  0  0  0  0  0  0  0
   -1.9298    5.1325    0.6943 C   0  0  0  0  0  0  0  0  0  0  0  0
   -2.2733    3.9366    0.0424 C   0  0  0  0  0  0  0  0  0  0  0  0
   -1.2898    3.0579   -0.4403 C   0  0  0  0  0  0  0  0  0  0  0  0
   -1.6333    1.8602   -1.0854 C   0  0  0  0  0  0  0  0  0  0  0  0
   -0.6542    0.9647   -1.5608 C   0  0  0  0  0  0  0  0  0  0  0  0
   -1.1040   -0.3055   -2.1903 C   0  0  0  0  0  0  0  0  0  0  0  0
   -1.4225   -1.4343   -1.3782 C   0  0  0  0  0  0  0  0  0  0  0  0
   -1.4727   -1.4159    0.0405 C   0  0  0  0  0  0  0  0  0  0  0  0
   -1.7644   -2.5612    0.7963 C   0  0  0  0  0  0  0  0  0  0  0  0
   -1.8085   -2.5301    2.2010 C   0  0  0  0  0  0  0  0  0  0  0  0
   -2.0790   -3.6871    2.9493 C   0  0  0  0  0  0  0  0  0  0  0  0
   -2.1162   -3.6623    4.3536 C   0  0  0  0  0  0  0  0  0  0  0  0
   -2.3844   -4.8231    5.0809 C   0  0  0  0  0  0  0  0  0  0  0  0
   -2.6176   -6.0222    4.4149 C   0  0  0  0  0  0  0  0  0  0  0  0
   -2.5850   -6.0621    3.0201 C   0  0  0  0  0  0  0  0  0  0  0  0
   -2.3179   -4.9027    2.2737 C   0  0  0  0  0  0  0  0  0  0  0  0
   -2.2858   -4.9256    0.8694 C   0  0  0  0  0  0  0  0  0  0  0  0
   -2.0132   -3.7657    0.1239 C   0  0  0  0  0  0  0  0  0  0  0  0
   -1.9892   -3.7756   -1.2805 C   0  0  0  0  0  0  0  0  0  0  0  0
   -1.7155   -2.6412   -2.0337 C   0  0  0  0  0  0  0  0  0  0  0  0
   -1.7511   -2.7563   -3.3666 N   0  0  0  0  0  0  0  0  0  0  0  0
   -1.5295   -1.6808   -4.1319 C   0  0  0  0  0  0  0  0  0  0  0  0
   -1.6216   -1.8375   -5.5089 C   0  0  0  0  0  0  0  0  0  0  0  0
   -1.4378   -0.7718   -6.3906 C   0  0  0  0  0  0  0  0  0  0  0  0
   -1.1652    0.4895   -5.8873 C   0  0  0  0  0  0  0  0  0  0  0  0
   -1.0639    0.6676   -4.5083 C   0  0  0  0  0  0  0  0  0  0  0  0
   -1.2208   -0.4140   -3.6045 C   0  0  0  0  0  0  0  0  0  0  0  0
    4.1296    1.1946   -6.6455 H   0  0  0  0  0  0  0  0  0  0  0  0
    2.4451    2.8440   -5.8559 H   0  0  0  0  0  0  0  0  0  0  0  0
    1.3747    2.5452   -3.6749 H   0  0  0  0  0  0  0  0  0  0  0  0
    4.7258   -0.7265   -5.2124 H   0  0  0  0  0  0  0  0  0  0  0  0
    4.5324   -3.1862   -1.4499 H   0  0  0  0  0  0  0  0  0  0  0  0
    4.5990   -4.6056    0.5668 H   0  0  0  0  0  0  0  0  0  0  0  0
    4.6617   -6.0177    2.6011 H   0  0  0  0  0  0  0  0  0  0  0  0
    3.8397   -6.5194    4.8680 H   0  0  0  0  0  0  0  0  0  0  0  0
    2.1104   -5.0823    5.9162 H   0  0  0  0  0  0  0  0  0  0  0  0
    1.2078   -3.1401    4.6975 H   0  0  0  0  0  0  0  0  0  0  0  0
    1.1831   -1.7051    2.6883 H   0  0  0  0  0  0  0  0  0  0  0  0
    1.1619   -0.2944    0.6905 H   0  0  0  0  0  0  0  0  0  0  0  0
    2.1044    2.7544   -0.6194 H   0  0  0  0  0  0  0  0  0  0  0  0
    1.4642    4.8301    0.5111 H   0  0  0  0  0  0  0  0  0  0  0  0
    0.8271    6.9073    1.6435 H   0  0  0  0  0  0  0  0  0  0  0  0
    0.1839    8.9998    2.7889 H   0  0  0  0  0  0  0  0  0  0  0  0
   -1.5669   10.5136    3.6308 H   0  0  0  0  0  0  0  0  0  0  0  0
   -3.9614    9.9382    3.3393 H   0  0  0  0  0  0  0  0  0  0  0  0
   -4.6057    7.8496    2.2040 H   0  0  0  0  0  0  0  0  0  0  0  0
   -3.9647    5.7614    1.0529 H   0  0  0  0  0  0  0  0  0  0  0  0
   -3.3245    3.6849   -0.0889 H   0  0  0  0  0  0  0  0  0  0  0  0
   -2.6850    1.6044   -1.2155 H   0  0  0  0  0  0  0  0  0  0  0  0
   -1.2809   -0.4866    0.5726 H   0  0  0  0  0  0  0  0  0  0  0  0
   -1.6229   -1.5918    2.7203 H   0  0  0  0  0  0  0  0  0  0  0  0
   -1.9424   -2.7349    4.8945 H   0  0  0  0  0  0  0  0  0  0  0  0
   -2.4137   -4.7903    6.1671 H   0  0  0  0  0  0  0  0  0  0  0  0
   -2.8266   -6.9272    4.9793 H   0  0  0  0  0  0  0  0  0  0  0  0
   -2.7711   -7.0088    2.5176 H   0  0  0  0  0  0  0  0  0  0  0  0
   -2.4740   -5.8619    0.3466 H   0  0  0  0  0  0  0  0  0  0  0  0
   -2.1957   -4.7010   -1.8158 H   0  0  0  0  0  0  0  0  0  0  0  0
   -1.8484   -2.8239   -5.9078 H   0  0  0  0  0  0  0  0  0  0  0  0
   -1.5164   -0.9325   -7.4623 H   0  0  0  0  0  0  0  0  0  0  0  0
   -1.0304    1.3324   -6.5594 H   0  0  0  0  0  0  0  0  0  0  0  0
   -0.8682    1.6708   -4.1381 H   0  0  0  0  0  0  0  0  0  0  0  0
  1  2  4  0
  2  3  4  0
  3  4  4  0
  4  5  4  0
  5  6  4  0
  5  7  4  0
  7  8  4  0
  8  9  4  0
  9 10  4  0
 10 11  4  0
 11 12  4  0
 12 13  4  0
 13 14  4  0
 14 15  4  0
 15 16  4  0
 16 17  4  0
 17 18  4  0
 18 19  4  0
 19 20  4  0
 20 21  4  0
 21 22  4  0
 22 23  1  0
 23 24  4  0
 24 25  4  0
 25 26  4  0
 26 27  4  0
 27 28  4  0
 28 29  4  0
 29 30  4  0
 30 31  4  0
 31 32  4  0
 32 33  4  0
 33 34  4  0
 34 35  4  0
 35 36  4  0
 36 37  4  0
 37 38  4  0
 38 39  4  0
 39 40  4  0
 40 41  1  0
 41 42  4  0
 42 43  4  0
 43 44  4  0
 44 45  4  0
 45 46  4  0
 46 47  4  0
 47 48  4  0
 48 49  4  0
 49 50  4  0
 50 51  4  0
 51 52  4  0
 52 53  4  0
 53 54  4  0
 54 55  4  0
 55 56  4  0
 56 57  4  0
 57 58  4  0
 58 59  4  0
 59 60  4  0
 60 61  4  0
 61 62  4  0
  6  1  4  0
 21  8  4  0
 40 23  4  0
 62 41  4  0
 22  4  4  0
 38 25  4  0
 55 42  4  0
 62 57  4  0
 19 10  4  0
 36 27  4  0
 53 44  4  0
 17 12  4  0
 34 29  4  0
 51 46  4  0
  1 63  1  0
  2 64  1  0
  3 65  1  0
  6 66  1  0
  9 67  1  0
 11 68  1  0
 13 69  1  0
 14 70  1  0
 15 71  1  0
 16 72  1  0
 18 73  1  0
 20 74  1  0
 24 75  1  0
 26 76  1  0
 28 77  1  0
 30 78  1  0
 31 79  1  0
 32 80  1  0
 33 81  1  0
 35 82  1  0
 37 83  1  0
 39 84  1  0
 43 85  1  0
 45 86  1  0
 47 87  1  0
 48 88  1  0
 49 89  1  0
 50 90  1  0
 52 91  1  0
 54 92  1  0
 58 93  1  0
 59 94  1  0
 60 95  1  0
 61 96  1  0
M  END
