
     RDKit          3D

 96109  0  0  0  0  0  0  0  0999 V2000
    7.3139   -8.1940   -1.2977 C   0  0  0  0  0  0  0  0  0  0  0  0
    6.7486   -7.0023   -1.7536 C   0  0  0  0  0  0  0  0  0  0  0  0
    6.0874   -6.1359   -0.8676 C   0  0  0  0  0  0  0  0  0  0  0  0
    5.5132   -4.9330   -1.3106 C   0  0  0  0  0  0  0  0  0  0  0  0
    4.8524   -4.0681   -0.4221 C   0  0  0  0  0  0  0  0  0  0  0  0
    4.2765   -2.8658   -0.8570 C   0  0  0  0  0  0  0  0  0  0  0  0
    3.6187   -2.0120    0.0462 C   0  0  0  0  0  0  0  0  0  0  0  0
    3.0361   -0.8086   -0.3657 C   0  0  0  0  0  0  0  0  0  0  0  0
    2.3872    0.0120    0.5626 C   0  0  0  0  0  0  0  0  0  0  0  0
    1.7823    1.2263    0.1856 C   0  0  0  0  0  0  0  0  0  0  0  0
    1.1104    2.0246    1.1221 C   0  0  0  0  0  0  0  0  0  0  0  0
    0.4432    3.2801    0.7243 C   0  0  0  0  0  0  0  0  0  0  0  0
    0.9116    4.4932    1.2721 C   0  0  0  0  0  0  0  0  0  0  0  0
    0.3397    5.7327    0.9414 C   0  0  0  0  0  0  0  0  0  0  0  0
    0.8180    6.9340    1.4919 C   0  0  0  0  0  0  0  0  0  0  0  0
    0.2442    8.1725    1.1587 C   0  0  0  0  0  0  0  0  0  0  0  0
    0.7228    9.3736    1.7088 C   0  0  0  0  0  0  0  0  0  0  0  0
    0.1490   10.6117    1.3755 C   0  0  0  0  0  0  0  0  0  0  0  0
    0.6265   11.8131    1.9249 C   0  0  0  0  0  0  0  0  0  0  0  0
    0.0454   13.0352    1.5832 C   0  0  0  0  0  0  0  0  0  0  0  0
   -1.0195   13.0723    0.6886 C   0  0  0  0  0  0  0  0  0  0  0  0
   -1.5052   11.8871    0.1344 C   0  0  0  0  0  0  0  0  0  0  0  0
   -0.9312   10.6493    0.4683 C   0  0  0  0  0  0  0  0  0  0  0  0
   -1.4089    9.4480   -0.0809 C   0  0  0  0  0  0  0  0  0  0  0  0
   -0.8342    8.2102    0.2535 C   0  0  0  0  0  0  0  0  0  0  0  0
   -1.3115    7.0086   -0.2960 C   0  0  0  0  0  0  0  0  0  0  0  0
   -0.7356    5.7707    0.0371 C   0  0  0  0  0  0  0  0  0  0  0  0
   -1.2092    4.5687   -0.5130 C   0  0  0  0  0  0  0  0  0  0  0  0
   -0.6404    3.3190   -0.1885 C   0  0  0  0  0  0  0  0  0  0  0  0
   -1.2057    2.1071   -0.8136 C   0  0  0  0  0  0  0  0  0  0  0  0
   -1.1363    1.9178   -2.1992 C   0  0  0  0  0  0  0  0  0  0  0  0
   -1.6567    0.7604   -2.7906 C   0  0  0  0  0  0  0  0  0  0  0  0
   -2.2566   -0.2378   -2.0382 C   0  0  0  0  0  0  0  0  0  0  0  0
   -2.7356   -1.3314   -2.6561 N   0  0  0  0  0  0  0  0  0  0  0  0
   -3.3160   -2.2985   -1.9239 C   0  0  0  0  0  0  0  0  0  0  0  0
   -3.8166   -3.4256   -2.5617 C   0  0  0  0  0  0  0  0  0  0  0  0
   -4.4374   -4.4744   -1.8597 C   0  0  0  0  0  0  0  0  0  0  0  0
   -4.9379   -5.6074   -2.5233 C   0  0  0  0  0  0  0  0  0  0  0  0
   -5.5580   -6.6535   -1.8201 C   0  0  0  0  0  0  0  0  0  0  0  0
   -6.0588   -7.7864   -2.4825 C   0  0  0  0  0  0  0  0  0  0  0  0
   -6.6725   -8.8175   -1.7696 C   0  0  0  0  0  0  0  0  0  0  0  0
   -6.7936   -8.7294   -0.3862 C   0  0  0  0  0  0  0  0  0  0  0  0
   -6.3009   -7.6101    0.2863 C   0  0  0  0  0  0  0  0  0  0  0  0
   -5.6806   -6.5641   -0.4170 C   0  0  0  0  0  0  0  0  0  0  0  0
   -5.1799   -5.4311    0.2452 C   0  0  0  0  0  0  0  0  0  0  0  0
   -4.5601   -4.3860   -0.4606 C   0  0  0  0  0  0  0  0  0  0  0  0
   -4.0594   -3.2517    0.1945 C   0  0  0  0  0  0  0  0  0  0  0  0
   -3.4429   -2.2138   -0.5270 C   0  0  0  0  0  0  0  0  0  0  0  0
   -2.9408   -1.0710    0.1059 C   0  0  0  0  0  0  0  0  0  0  0  0
   -2.3379   -0.0575   -0.6466 C   0  0  0  0  0  0  0  0  0  0  0  0
   -1.8230    1.1083   -0.0472 C   0  0  0  0  0  0  0  0  0  0  0  0
    1.0851    1.5888    2.4525 C   0  0  0  0  0  0  0  0  0  0  0  0
    1.6990    0.3866    2.8243 C   0  0  0  0  0  0  0  0  0  0  0  0
    2.3483   -0.4178    1.9004 C   0  0  0  0  0  0  0  0  0  0  0  0
    2.9091   -1.5691    2.3079 N   0  0  0  0  0  0  0  0  0  0  0  0
    3.5269   -2.3523    1.4065 C   0  0  0  0  0  0  0  0  0  0  0  0
    4.1000   -3.5446    1.8253 C   0  0  0  0  0  0  0  0  0  0  0  0
    4.7628   -4.4126    0.9396 C   0  0  0  0  0  0  0  0  0  0  0  0
    5.3366   -5.6155    1.3838 C   0  0  0  0  0  0  0  0  0  0  0  0
    5.9979   -6.4817    0.4978 C   0  0  0  0  0  0  0  0  0  0  0  0
    6.5718   -7.6845    0.9411 C   0  0  0  0  0  0  0  0  0  0  0  0
    7.2256   -8.5348    0.0483 C   0  0  0  0  0  0  0  0  0  0  0  0
    7.8226   -8.8550   -1.9944 H   0  0  0  0  0  0  0  0  0  0  0  0
    6.8284   -6.7540   -2.8096 H   0  0  0  0  0  0  0  0  0  0  0  0
    5.5824   -4.6671   -2.3638 H   0  0  0  0  0  0  0  0  0  0  0  0
    4.3383   -2.5892   -1.9077 H   0  0  0  0  0  0  0  0  0  0  0  0
    3.0781   -0.5145   -1.4118 H   0  0  0  0  0  0  0  0  0  0  0  0
    1.8263    1.5473   -0.8538 H   0  0  0  0  0  0  0  0  0  0  0  0
    1.7521    4.4663    1.9656 H   0  0  0  0  0  0  0  0  0  0  0  0
    1.6516    6.9054    2.1919 H   0  0  0  0  0  0  0  0  0  0  0  0
    1.5560    9.3454    2.4085 H   0  0  0  0  0  0  0  0  0  0  0  0
    1.4578   11.8056    2.6264 H   0  0  0  0  0  0  0  0  0  0  0  0
    0.4252   13.9569    2.0162 H   0  0  0  0  0  0  0  0  0  0  0  0
   -1.4734   14.0229    0.4212 H   0  0  0  0  0  0  0  0  0  0  0  0
   -2.3386   11.9367   -0.5629 H   0  0  0  0  0  0  0  0  0  0  0  0
   -2.2424    9.4788   -0.7803 H   0  0  0  0  0  0  0  0  0  0  0  0
   -2.1452    7.0379   -0.9958 H   0  0  0  0  0  0  0  0  0  0  0  0
   -2.0496    4.5990   -1.2065 H   0  0  0  0  0  0  0  0  0  0  0  0
   -0.6648    2.6659   -2.8336 H   0  0  0  0  0  0  0  0  0  0  0  0
   -1.5877    0.6338   -3.8685 H   0  0  0  0  0  0  0  0  0  0  0  0
   -3.7165   -3.4822   -3.6440 H   0  0  0  0  0  0  0  0  0  0  0  0
   -4.8435   -5.6762   -3.6059 H   0  0  0  0  0  0  0  0  0  0  0  0
   -5.9737   -7.8738   -3.5635 H   0  0  0  0  0  0  0  0  0  0  0  0
   -7.0553   -9.6882   -2.2955 H   0  0  0  0  0  0  0  0  0  0  0  0
   -7.2712   -9.5313    0.1706 H   0  0  0  0  0  0  0  0  0  0  0  0
   -6.4050   -7.5598    1.3678 H   0  0  0  0  0  0  0  0  0  0  0  0
   -5.2749   -5.3627    1.3275 H   0  0  0  0  0  0  0  0  0  0  0  0
   -4.1516   -3.1717    1.2759 H   0  0  0  0  0  0  0  0  0  0  0  0
   -3.0185   -0.9703    1.1860 H   0  0  0  0  0  0  0  0  0  0  0  0
   -1.8977    1.2343    1.0317 H   0  0  0  0  0  0  0  0  0  0  0  0
    0.5746    2.1755    3.2138 H   0  0  0  0  0  0  0  0  0  0  0  0
    1.6622    0.0667    3.8632 H   0  0  0  0  0  0  0  0  0  0  0  0
    4.0211   -3.8013    2.8797 H   0  0  0  0  0  0  0  0  0  0  0  0
    5.2673   -5.8822    2.4372 H   0  0  0  0  0  0  0  0  0  0  0  0
    6.5133   -7.9685    1.9895 H   0  0  0  0  0  0  0  0  0  0  0  0
    7.6650   -9.4623    0.4056 H   0  0  0  0  0  0  0  0  0  0  0  0
  1  2  4  0
  2  3  4  0
  3  4  4  0
  4  5  4  0
  5  6  4  0
  6  7  4  0
  7  8  4  0
  8  9  4  0
  9 10  4  0
 10 11  4  0
 11 12  1  0
 12 13  4  0
 13 14  4  0
 14 15  4  0
 15 16  4  0
 16 17  4  0
 17 18  4  0
 18 19  4  0
 19 20  4  0
 20 21  4  0
 21 22  4  0
 22 23  4  0
 23 24  4  0
 24 25  4  0
 25 26  4  0
 26 27  4  0
 27 28  4  0
 28 29  4  0
 29 30  1  0
 30 31  4  0
 31 32  4  0
 32 33  4  0
 33 34  4  0
 34 35  4  0
 35 36  4  0
 36 37  4  0
 37 38  4  0
 38 39  4  0
 39 40  4  0
 40 41  4  0
 41 42  4  0
 42 43  4  0
 43 44  4  0
 44 45  4  0
 45 46  4  0
 46 47  4  0
 47 48  4  0
 48 49  4  0
 49 50  4  0
 50 51  4  0
 11 52  4  0
 52 53  4  0
 53 54  4  0
 54 55  4  0
 55 56  4  0
 56 57  4  0
 57 58  4  0
 58 59  4  0
 59 60  4  0
 60 61  4  0
 61 62  4  0
 62  1  4  0
 60  3  4  0
 58  5  4  0
 56  7  4  0
 54  9  4  0
 29 12  4  0
 51 30  4  0
 27 14  4  0
 50 33  4  0
 25 16  4  0
 48 35  4  0
 23 18  4  0
 46 37  4  0
 44 39  4  0
  1 63  1  0
  2 64  1  0
  4 65  1  0
  6 66  1  0
  8 67  1  0
 10 68  1  0
 13 69  1  0
 15 70  1  0
 17 71  1  0
 19 72  1  0
 20 73  1  0
 21 74  1  0
 22 75  1  0
 24 76  1  0
 26 77  1  0
 28 78  1  0
 31 79  1  0
 32 80  1  0
 36 81  1  0
 38 82  1  0
 40 83  1  0
 41 84  1  0
 42 85  1  0
 43 86  1  0
 45 87  1  0
 47 88  1  0
 49 89  1  0
 51 90  1  0
 52 91  1  0
 53 92  1  0
 57 93  1  0
 59 94  1  0
 61 95  1  0
 62 96  1  0
M  END
