
     RDKit          3D

 86 99  0  0  0  0  0  0  0  0999 V2000
  -10.4507   -3.1373    5.0473 C   0  0  0  0  0  0  0  0  0  0  0  0
   -9.7016   -2.1102    4.5232 C   0  0  0  0  0  0  0  0  0  0  0  0
   -8.4556   -2.5561    3.9673 C   0  0  0  0  0  0  0  0  0  0  0  0
   -7.4141   -1.8303    3.3410 C   0  0  0  0  0  0  0  0  0  0  0  0
   -6.2614   -2.4787    2.8616 C   0  0  0  0  0  0  0  0  0  0  0  0
   -6.1367   -3.8705    3.0053 C   0  0  0  0  0  0  0  0  0  0  0  0
   -4.9810   -4.5076    2.5236 C   0  0  0  0  0  0  0  0  0  0  0  0
   -3.9479   -3.7879    1.9008 C   0  0  0  0  0  0  0  0  0  0  0  0
   -2.7980   -4.4381    1.4236 C   0  0  0  0  0  0  0  0  0  0  0  0
   -1.7790   -3.6897    0.8011 C   0  0  0  0  0  0  0  0  0  0  0  0
   -0.3017   -4.2946    0.1549 S   0  0  0  0  0  0  0  0  0  0  0  0
    0.2043   -2.7449   -0.3401 C   0  0  0  0  0  0  0  0  0  0  0  0
   -0.7149   -1.7688   -0.0193 C   0  0  0  0  0  0  0  0  0  0  0  0
   -0.4712   -0.3699   -0.3581 C   0  0  0  0  0  0  0  0  0  0  0  0
   -1.2212    0.1965   -1.4010 C   0  0  0  0  0  0  0  0  0  0  0  0
   -1.0461    1.5379   -1.7775 C   0  0  0  0  0  0  0  0  0  0  0  0
   -1.7930    2.1070   -2.8216 C   0  0  0  0  0  0  0  0  0  0  0  0
   -1.6196    3.4490   -3.1992 C   0  0  0  0  0  0  0  0  0  0  0  0
   -2.3670    4.0171   -4.2445 C   0  0  0  0  0  0  0  0  0  0  0  0
   -2.1945    5.3586   -4.6229 C   0  0  0  0  0  0  0  0  0  0  0  0
   -2.9408    5.9267   -5.6685 C   0  0  0  0  0  0  0  0  0  0  0  0
   -2.7584    7.2616   -6.0325 C   0  0  0  0  0  0  0  0  0  0  0  0
   -1.8285    8.0451   -5.3564 C   0  0  0  0  0  0  0  0  0  0  0  0
   -1.0790    7.4948   -4.3154 C   0  0  0  0  0  0  0  0  0  0  0  0
   -1.2509    6.1529   -3.9375 C   0  0  0  0  0  0  0  0  0  0  0  0
   -0.5040    5.5838   -2.8926 C   0  0  0  0  0  0  0  0  0  0  0  0
   -0.6765    4.2413   -2.5155 C   0  0  0  0  0  0  0  0  0  0  0  0
    0.0712    3.6717   -1.4712 C   0  0  0  0  0  0  0  0  0  0  0  0
   -0.1016    2.3299   -1.0940 C   0  0  0  0  0  0  0  0  0  0  0  0
    0.6462    1.7618   -0.0499 C   0  0  0  0  0  0  0  0  0  0  0  0
    0.4687    0.4208    0.3261 C   0  0  0  0  0  0  0  0  0  0  0  0
    1.2848   -0.0993    1.4193 C   0  0  0  0  0  0  0  0  0  0  0  0
    0.7313   -0.3482    2.6572 C   0  0  0  0  0  0  0  0  0  0  0  0
    1.8768   -0.9455    3.7677 S   0  0  0  0  0  0  0  0  0  0  0  0
    3.1497   -0.8741    2.6100 C   0  0  0  0  0  0  0  0  0  0  0  0
    4.4966   -1.2350    2.8133 C   0  0  0  0  0  0  0  0  0  0  0  0
    5.4159   -1.1191    1.7580 C   0  0  0  0  0  0  0  0  0  0  0  0
    6.7649   -1.4700    1.9321 C   0  0  0  0  0  0  0  0  0  0  0  0
    7.6963   -1.3604    0.8862 C   0  0  0  0  0  0  0  0  0  0  0  0
    7.2671   -0.8891   -0.3655 C   0  0  0  0  0  0  0  0  0  0  0  0
    5.9180   -0.5384   -0.5402 C   0  0  0  0  0  0  0  0  0  0  0  0
    4.9880   -0.6472    0.5071 C   0  0  0  0  0  0  0  0  0  0  0  0
    3.6396   -0.2923    0.3239 C   0  0  0  0  0  0  0  0  0  0  0  0
    2.6968   -0.3980    1.3791 C   0  0  0  0  0  0  0  0  0  0  0  0
    8.1918   -0.7760   -1.4198 C   0  0  0  0  0  0  0  0  0  0  0  0
    9.5513   -1.1291   -1.2433 C   0  0  0  0  0  0  0  0  0  0  0  0
   10.6522   -1.0953   -2.1638 C   0  0  0  0  0  0  0  0  0  0  0  0
   11.8318   -1.5244   -1.6021 C   0  0  0  0  0  0  0  0  0  0  0  0
   11.6344   -1.9716    0.0311 S   0  0  0  0  0  0  0  0  0  0  0  0
    9.9525   -1.5941    0.0091 C   0  0  0  0  0  0  0  0  0  0  0  0
    9.0423   -1.7147    1.0773 C   0  0  0  0  0  0  0  0  0  0  0  0
   -1.8795   -2.3073    0.6420 C   0  0  0  0  0  0  0  0  0  0  0  0
   -3.0461   -1.6680    1.1353 C   0  0  0  0  0  0  0  0  0  0  0  0
   -4.0742   -2.3972    1.7575 C   0  0  0  0  0  0  0  0  0  0  0  0
   -5.2286   -1.7585    2.2396 C   0  0  0  0  0  0  0  0  0  0  0  0
   -7.1616   -4.6046    3.6245 C   0  0  0  0  0  0  0  0  0  0  0  0
   -8.3084   -3.9372    4.0973 C   0  0  0  0  0  0  0  0  0  0  0  0
   -9.6715   -4.6443    4.8803 S   0  0  0  0  0  0  0  0  0  0  0  0
  -11.4205   -3.0747    5.5217 H   0  0  0  0  0  0  0  0  0  0  0  0
  -10.0274   -1.0774    4.5345 H   0  0  0  0  0  0  0  0  0  0  0  0
   -7.5169   -0.7528    3.2341 H   0  0  0  0  0  0  0  0  0  0  0  0
   -4.8835   -5.5865    2.6360 H   0  0  0  0  0  0  0  0  0  0  0  0
   -2.6845   -5.5140    1.5297 H   0  0  0  0  0  0  0  0  0  0  0  0
    1.1580   -2.6248   -0.8367 H   0  0  0  0  0  0  0  0  0  0  0  0
   -1.9487   -0.4200   -1.9279 H   0  0  0  0  0  0  0  0  0  0  0  0
   -2.5222    1.4956   -3.3509 H   0  0  0  0  0  0  0  0  0  0  0  0
   -3.0957    3.4053   -4.7734 H   0  0  0  0  0  0  0  0  0  0  0  0
   -3.6723    5.3307   -6.2097 H   0  0  0  0  0  0  0  0  0  0  0  0
   -3.3424    7.6882   -6.8440 H   0  0  0  0  0  0  0  0  0  0  0  0
   -1.6848    9.0849   -5.6386 H   0  0  0  0  0  0  0  0  0  0  0  0
   -0.3570    8.1243   -3.8000 H   0  0  0  0  0  0  0  0  0  0  0  0
    0.2234    6.1983   -2.3650 H   0  0  0  0  0  0  0  0  0  0  0  0
    0.8001    4.2843   -0.9429 H   0  0  0  0  0  0  0  0  0  0  0  0
    1.3744    2.3711    0.4841 H   0  0  0  0  0  0  0  0  0  0  0  0
   -0.2973   -0.2164    2.9663 H   0  0  0  0  0  0  0  0  0  0  0  0
    4.8126   -1.6016    3.7868 H   0  0  0  0  0  0  0  0  0  0  0  0
    7.0975   -1.8360    2.9026 H   0  0  0  0  0  0  0  0  0  0  0  0
    5.5854   -0.1731   -1.5106 H   0  0  0  0  0  0  0  0  0  0  0  0
    3.3023    0.0709   -0.6448 H   0  0  0  0  0  0  0  0  0  0  0  0
    7.8682   -0.4123   -2.3923 H   0  0  0  0  0  0  0  0  0  0  0  0
   10.5739   -0.7688   -3.1934 H   0  0  0  0  0  0  0  0  0  0  0  0
   12.8021   -1.5967   -2.0738 H   0  0  0  0  0  0  0  0  0  0  0  0
    9.3898   -2.0807    2.0401 H   0  0  0  0  0  0  0  0  0  0  0  0
   -3.1378   -0.5894    1.0256 H   0  0  0  0  0  0  0  0  0  0  0  0
   -5.3250   -0.6795    2.1278 H   0  0  0  0  0  0  0  0  0  0  0  0
   -7.0801   -5.6820    3.7431 H   0  0  0  0  0  0  0  0  0  0  0  0
  1  2  4  0
  2  3  4  0
  3  4  4  0
  4  5  4  0
  5  6  4  0
  6  7  4  0
  7  8  4  0
  8  9  4  0
  9 10  4  0
 10 11  4  0
 11 12  4  0
 12 13  4  0
 13 14  1  0
 14 15  4  0
 15 16  4  0
 16 17  4  0
 17 18  4  0
 18 19  4  0
 19 20  4  0
 20 21  4  0
 21 22  4  0
 22 23  4  0
 23 24  4  0
 24 25  4  0
 25 26  4  0
 26 27  4  0
 27 28  4  0
 28 29  4  0
 29 30  4  0
 30 31  4  0
 31 32  1  0
 32 33  4  0
 33 34  4  0
 34 35  4  0
 35 36  4  0
 36 37  4  0
 37 38  4  0
 38 39  4  0
 39 40  4  0
 40 41  4  0
 41 42  4  0
 42 43  4  0
 43 44  4  0
 40 45  4  0
 45 46  4  0
 46 47  4  0
 47 48  4  0
 48 49  4  0
 49 50  4  0
 50 51  4  0
 13 52  4  0
 52 53  4  0
 53 54  4  0
 54 55  4  0
  6 56  4  0
 56 57  4  0
 57 58  4  0
 58  1  4  0
 57  3  4  0
 55  5  4  0
 54  8  4  0
 52 10  4  0
 31 14  4  0
 44 32  4  0
 50 46  4  0
 29 16  4  0
 44 35  4  0
 27 18  4  0
 42 37  4  0
 25 20  4  0
 51 39  4  0
  1 59  1  0
  2 60  1  0
  4 61  1  0
  7 62  1  0
  9 63  1  0
 12 64  1  0
 15 65  1  0
 17 66  1  0
 19 67  1  0
 21 68  1  0
 22 69  1  0
 23 70  1  0
 24 71  1  0
 26 72  1  0
 28 73  1  0
 30 74  1  0
 33 75  1  0
 36 76  1  0
 38 77  1  0
 41 78  1  0
 43 79  1  0
 45 80  1  0
 47 81  1  0
 48 82  1  0
 51 83  1  0
 53 84  1  0
 55 85  1  0
 56 86  1  0
M  END
