
     RDKit          3D

 86 99  0  0  0  0  0  0  0  0999 V2000
   -2.9385    0.9305    6.1039 C   0  0  0  0  0  0  0  0  0  0  0  0
   -1.9239    0.7888    5.1867 C   0  0  0  0  0  0  0  0  0  0  0  0
   -2.3351    1.1028    3.8487 C   0  0  0  0  0  0  0  0  0  0  0  0
   -1.6172    1.0700    2.6287 C   0  0  0  0  0  0  0  0  0  0  0  0
   -2.2102    1.3919    1.3823 C   0  0  0  0  0  0  0  0  0  0  0  0
   -3.5502    1.8191    1.3978 C   0  0  0  0  0  0  0  0  0  0  0  0
   -4.1673    2.2065    0.2032 C   0  0  0  0  0  0  0  0  0  0  0  0
   -3.4853    2.2160   -1.0184 C   0  0  0  0  0  0  0  0  0  0  0  0
   -4.1534    2.6527   -2.1770 C   0  0  0  0  0  0  0  0  0  0  0  0
   -3.4747    2.6898   -3.4076 C   0  0  0  0  0  0  0  0  0  0  0  0
   -4.1009    3.1879   -4.9332 S   0  0  0  0  0  0  0  0  0  0  0  0
   -2.6120    2.9120   -5.7177 C   0  0  0  0  0  0  0  0  0  0  0  0
   -1.6538    2.4443   -4.8492 C   0  0  0  0  0  0  0  0  0  0  0  0
   -2.1416    2.3048   -3.5068 C   0  0  0  0  0  0  0  0  0  0  0  0
   -1.4946    1.8556   -2.3303 C   0  0  0  0  0  0  0  0  0  0  0  0
   -2.1471    1.7869   -1.0705 C   0  0  0  0  0  0  0  0  0  0  0  0
   -1.5210    1.3100    0.1304 C   0  0  0  0  0  0  0  0  0  0  0  0
   -0.1658    0.6925    0.0561 C   0  0  0  0  0  0  0  0  0  0  0  0
    0.9620    1.5361    0.0319 C   0  0  0  0  0  0  0  0  0  0  0  0
    2.2623    1.0263   -0.1046 C   0  0  0  0  0  0  0  0  0  0  0  0
    3.3796    1.8761   -0.1399 C   0  0  0  0  0  0  0  0  0  0  0  0
    4.6811    1.3684   -0.2867 C   0  0  0  0  0  0  0  0  0  0  0  0
    5.7989    2.2188   -0.3236 C   0  0  0  0  0  0  0  0  0  0  0  0
    7.0996    1.7110   -0.4724 C   0  0  0  0  0  0  0  0  0  0  0  0
    8.2175    2.5603   -0.5098 C   0  0  0  0  0  0  0  0  0  0  0  0
    9.5037    2.0400   -0.6585 C   0  0  0  0  0  0  0  0  0  0  0  0
    9.6888    0.6657   -0.7718 C   0  0  0  0  0  0  0  0  0  0  0  0
    8.5879   -0.1912   -0.7369 C   0  0  0  0  0  0  0  0  0  0  0  0
    7.2873    0.3169   -0.5874 C   0  0  0  0  0  0  0  0  0  0  0  0
    6.1693   -0.5321   -0.5501 C   0  0  0  0  0  0  0  0  0  0  0  0
    4.8686   -0.0231   -0.4009 C   0  0  0  0  0  0  0  0  0  0  0  0
    3.7506   -0.8726   -0.3636 C   0  0  0  0  0  0  0  0  0  0  0  0
    2.4500   -0.3643   -0.2169 C   0  0  0  0  0  0  0  0  0  0  0  0
    1.3346   -1.2149   -0.1752 C   0  0  0  0  0  0  0  0  0  0  0  0
    0.0264   -0.7146   -0.0259 C   0  0  0  0  0  0  0  0  0  0  0  0
   -1.1042   -1.6821    0.0708 C   0  0  0  0  0  0  0  0  0  0  0  0
   -1.9020   -1.9782   -1.0805 C   0  0  0  0  0  0  0  0  0  0  0  0
   -1.5918   -1.5297   -2.3889 C   0  0  0  0  0  0  0  0  0  0  0  0
   -2.4235   -1.7915   -3.5046 C   0  0  0  0  0  0  0  0  0  0  0  0
   -2.2952   -1.4064   -4.8807 C   0  0  0  0  0  0  0  0  0  0  0  0
   -3.3358   -1.8551   -5.6594 C   0  0  0  0  0  0  0  0  0  0  0  0
   -4.4674   -2.7526   -4.7531 S   0  0  0  0  0  0  0  0  0  0  0  0
   -3.5756   -2.5429   -3.2942 C   0  0  0  0  0  0  0  0  0  0  0  0
   -3.8988   -3.0396   -2.0197 C   0  0  0  0  0  0  0  0  0  0  0  0
   -3.0597   -2.7623   -0.9261 C   0  0  0  0  0  0  0  0  0  0  0  0
   -3.3862   -3.2754    0.3338 C   0  0  0  0  0  0  0  0  0  0  0  0
   -2.5774   -3.0644    1.4556 C   0  0  0  0  0  0  0  0  0  0  0  0
   -1.4123   -2.2855    1.3367 C   0  0  0  0  0  0  0  0  0  0  0  0
   -0.6068   -2.1455    2.4981 C   0  0  0  0  0  0  0  0  0  0  0  0
   -0.9515   -2.7207    3.7452 C   0  0  0  0  0  0  0  0  0  0  0  0
   -0.2766   -2.6876    5.0113 C   0  0  0  0  0  0  0  0  0  0  0  0
   -0.9568   -3.3665    5.9949 C   0  0  0  0  0  0  0  0  0  0  0  0
   -2.4038   -4.0532    5.4096 S   0  0  0  0  0  0  0  0  0  0  0  0
   -2.1331   -3.4511    3.8185 C   0  0  0  0  0  0  0  0  0  0  0  0
   -2.9477   -3.6334    2.6876 C   0  0  0  0  0  0  0  0  0  0  0  0
   -4.2829    1.8629    2.5975 C   0  0  0  0  0  0  0  0  0  0  0  0
   -3.6695    1.4943    3.8074 C   0  0  0  0  0  0  0  0  0  0  0  0
   -4.3854    1.4607    5.3742 S   0  0  0  0  0  0  0  0  0  0  0  0
   -2.8989    0.7468    7.1685 H   0  0  0  0  0  0  0  0  0  0  0  0
   -0.9280    0.4599    5.4538 H   0  0  0  0  0  0  0  0  0  0  0  0
   -0.5712    0.7795    2.6738 H   0  0  0  0  0  0  0  0  0  0  0  0
   -5.2076    2.5310    0.2286 H   0  0  0  0  0  0  0  0  0  0  0  0
   -5.1933    2.9675   -2.1324 H   0  0  0  0  0  0  0  0  0  0  0  0
   -2.5093    3.1060   -6.7765 H   0  0  0  0  0  0  0  0  0  0  0  0
   -0.6421    2.2086   -5.1557 H   0  0  0  0  0  0  0  0  0  0  0  0
   -0.4542    1.5551   -2.4242 H   0  0  0  0  0  0  0  0  0  0  0  0
    0.8118    2.6132    0.1059 H   0  0  0  0  0  0  0  0  0  0  0  0
    3.2341    2.9517   -0.0538 H   0  0  0  0  0  0  0  0  0  0  0  0
    5.6543    3.2941   -0.2352 H   0  0  0  0  0  0  0  0  0  0  0  0
    8.0944    3.6376   -0.4236 H   0  0  0  0  0  0  0  0  0  0  0  0
   10.3601    2.7087   -0.6859 H   0  0  0  0  0  0  0  0  0  0  0  0
   10.6900    0.2589   -0.8879 H   0  0  0  0  0  0  0  0  0  0  0  0
    8.7543   -1.2624   -0.8275 H   0  0  0  0  0  0  0  0  0  0  0  0
    6.3147   -1.6072   -0.6396 H   0  0  0  0  0  0  0  0  0  0  0  0
    3.8955   -1.9482   -0.4515 H   0  0  0  0  0  0  0  0  0  0  0  0
    1.4771   -2.2930   -0.2484 H   0  0  0  0  0  0  0  0  0  0  0  0
   -0.6855   -0.9574   -2.5663 H   0  0  0  0  0  0  0  0  0  0  0  0
   -1.4765   -0.8164   -5.2726 H   0  0  0  0  0  0  0  0  0  0  0  0
   -3.4859   -1.6986   -6.7186 H   0  0  0  0  0  0  0  0  0  0  0  0
   -4.7997   -3.6348   -1.8924 H   0  0  0  0  0  0  0  0  0  0  0  0
   -4.2898   -3.8757    0.4407 H   0  0  0  0  0  0  0  0  0  0  0  0
    0.3166   -1.5734    2.4571 H   0  0  0  0  0  0  0  0  0  0  0  0
    0.6652   -2.1819    5.1851 H   0  0  0  0  0  0  0  0  0  0  0  0
   -0.6733   -3.4933    7.0306 H   0  0  0  0  0  0  0  0  0  0  0  0
   -3.8605   -4.2170    2.7775 H   0  0  0  0  0  0  0  0  0  0  0  0
   -5.3234    2.1777    2.6018 H   0  0  0  0  0  0  0  0  0  0  0  0
  1  2  4  0
  2  3  4  0
  3  4  4  0
  4  5  4  0
  5  6  4  0
  6  7  4  0
  7  8  4  0
  8  9  4  0
  9 10  4  0
 10 11  4  0
 11 12  4  0
 12 13  4  0
 13 14  4  0
 14 15  4  0
 15 16  4  0
 16 17  4  0
 17 18  1  0
 18 19  4  0
 19 20  4  0
 20 21  4  0
 21 22  4  0
 22 23  4  0
 23 24  4  0
 24 25  4  0
 25 26  4  0
 26 27  4  0
 27 28  4  0
 28 29  4  0
 29 30  4  0
 30 31  4  0
 31 32  4  0
 32 33  4  0
 33 34  4  0
 34 35  4  0
 35 36  1  0
 36 37  4  0
 37 38  4  0
 38 39  4  0
 39 40  4  0
 40 41  4  0
 41 42  4  0
 42 43  4  0
 43 44  4  0
 44 45  4  0
 45 46  4  0
 46 47  4  0
 47 48  4  0
 48 49  4  0
 49 50  4  0
 50 51  4  0
 51 52  4  0
 52 53  4  0
 53 54  4  0
 54 55  4  0
  6 56  4  0
 56 57  4  0
 57 58  4  0
 58  1  4  0
 57  3  4  0
 17  5  4  0
 35 18  4  0
 48 36  4  0
 54 50  4  0
 16  8  4  0
 33 20  4  0
 45 37  4  0
 55 47  4  0
 14 10  4  0
 31 22  4  0
 43 39  4  0
 29 24  4  0
  1 59  1  0
  2 60  1  0
  4 61  1  0
  7 62  1  0
  9 63  1  0
 12 64  1  0
 13 65  1  0
 15 66  1  0
 19 67  1  0
 21 68  1  0
 23 69  1  0
 25 70  1  0
 26 71  1  0
 27 72  1  0
 28 73  1  0
 30 74  1  0
 32 75  1  0
 34 76  1  0
 38 77  1  0
 40 78  1  0
 41 79  1  0
 44 80  1  0
 46 81  1  0
 49 82  1  0
 51 83  1  0
 52 84  1  0
 55 85  1  0
 56 86  1  0
M  END
