
     RDKit          3D

 86 99  0  0  0  0  0  0  0  0999 V2000
   -0.1331    6.0309    6.6890 C   0  0  0  0  0  0  0  0  0  0  0  0
    0.7353    6.3653    5.6765 C   0  0  0  0  0  0  0  0  0  0  0  0
    0.6041    5.5172    4.5260 C   0  0  0  0  0  0  0  0  0  0  0  0
    1.2982    5.5229    3.2921 C   0  0  0  0  0  0  0  0  0  0  0  0
    1.0110    4.5766    2.2911 C   0  0  0  0  0  0  0  0  0  0  0  0
    1.6923    4.5774    1.0650 C   0  0  0  0  0  0  0  0  0  0  0  0
    1.4281    3.6200    0.0695 C   0  0  0  0  0  0  0  0  0  0  0  0
    0.4781    2.6087    0.2958 C   0  0  0  0  0  0  0  0  0  0  0  0
   -0.2350    2.6570    1.5157 C   0  0  0  0  0  0  0  0  0  0  0  0
    0.0221    3.6115    2.5144 C   0  0  0  0  0  0  0  0  0  0  0  0
   -0.6871    3.6006    3.7271 C   0  0  0  0  0  0  0  0  0  0  0  0
   -0.3829    4.5509    4.7201 C   0  0  0  0  0  0  0  0  0  0  0  0
   -1.1149    4.7007    6.2732 S   0  0  0  0  0  0  0  0  0  0  0  0
    0.2682    1.5947   -0.6898 C   0  0  0  0  0  0  0  0  0  0  0  0
   -0.5727    0.3995   -0.4333 C   0  0  0  0  0  0  0  0  0  0  0  0
   -1.8802    0.3660   -0.9551 C   0  0  0  0  0  0  0  0  0  0  0  0
   -2.7231   -0.7405   -0.7687 C   0  0  0  0  0  0  0  0  0  0  0  0
   -4.0235   -0.7653   -1.2982 C   0  0  0  0  0  0  0  0  0  0  0  0
   -4.8685   -1.8723   -1.1148 C   0  0  0  0  0  0  0  0  0  0  0  0
   -6.1696   -1.8953   -1.6444 C   0  0  0  0  0  0  0  0  0  0  0  0
   -7.0154   -3.0015   -1.4612 C   0  0  0  0  0  0  0  0  0  0  0  0
   -8.3167   -3.0250   -1.9898 C   0  0  0  0  0  0  0  0  0  0  0  0
   -9.1449   -4.1321   -1.7993 C   0  0  0  0  0  0  0  0  0  0  0  0
   -8.6832   -5.2290   -1.0785 C   0  0  0  0  0  0  0  0  0  0  0  0
   -7.3927   -5.2207   -0.5470 C   0  0  0  0  0  0  0  0  0  0  0  0
   -6.5472   -4.1139   -0.7300 C   0  0  0  0  0  0  0  0  0  0  0  0
   -5.2459   -4.0899   -0.2014 C   0  0  0  0  0  0  0  0  0  0  0  0
   -4.4009   -2.9822   -0.3845 C   0  0  0  0  0  0  0  0  0  0  0  0
   -3.0994   -2.9565    0.1447 C   0  0  0  0  0  0  0  0  0  0  0  0
   -2.2552   -1.8490   -0.0388 C   0  0  0  0  0  0  0  0  0  0  0  0
   -0.9559   -1.8233    0.4920 C   0  0  0  0  0  0  0  0  0  0  0  0
   -0.1039   -0.7155    0.3170 C   0  0  0  0  0  0  0  0  0  0  0  0
    1.2496   -0.7519    0.9240 C   0  0  0  0  0  0  0  0  0  0  0  0
    1.4046   -0.4559    2.3114 C   0  0  0  0  0  0  0  0  0  0  0  0
    0.1670   -0.2366    3.5128 S   0  0  0  0  0  0  0  0  0  0  0  0
    1.2867    0.1508    4.7311 C   0  0  0  0  0  0  0  0  0  0  0  0
    2.5796    0.0610    4.2806 C   0  0  0  0  0  0  0  0  0  0  0  0
    2.6656   -0.3115    2.8958 C   0  0  0  0  0  0  0  0  0  0  0  0
    3.8058   -0.5143    2.0882 C   0  0  0  0  0  0  0  0  0  0  0  0
    3.6935   -0.9034    0.7473 C   0  0  0  0  0  0  0  0  0  0  0  0
    2.4229   -1.0496    0.1627 C   0  0  0  0  0  0  0  0  0  0  0  0
    2.3796   -1.5003   -1.1769 C   0  0  0  0  0  0  0  0  0  0  0  0
    3.5346   -1.7450   -1.9397 C   0  0  0  0  0  0  0  0  0  0  0  0
    3.4448   -2.1664   -3.2770 C   0  0  0  0  0  0  0  0  0  0  0  0
    4.6215   -2.3881   -4.0178 C   0  0  0  0  0  0  0  0  0  0  0  0
    4.7340   -2.8929   -5.6619 S   0  0  0  0  0  0  0  0  0  0  0  0
    6.4385   -2.8764   -5.6275 C   0  0  0  0  0  0  0  0  0  0  0  0
    6.9243   -2.4949   -4.3989 C   0  0  0  0  0  0  0  0  0  0  0  0
    5.8838   -2.2066   -3.4528 C   0  0  0  0  0  0  0  0  0  0  0  0
    5.9559   -1.7884   -2.1022 C   0  0  0  0  0  0  0  0  0  0  0  0
    4.7898   -1.5570   -1.3490 C   0  0  0  0  0  0  0  0  0  0  0  0
    4.8534   -1.1457   -0.0098 C   0  0  0  0  0  0  0  0  0  0  0  0
    0.9205    1.7364   -1.9509 C   0  0  0  0  0  0  0  0  0  0  0  0
    0.7244    0.7672   -3.3809 S   0  0  0  0  0  0  0  0  0  0  0  0
    1.9009    1.6364   -4.2454 C   0  0  0  0  0  0  0  0  0  0  0  0
    2.4175    2.6694   -3.5046 C   0  0  0  0  0  0  0  0  0  0  0  0
    1.8494    2.7531   -2.1878 C   0  0  0  0  0  0  0  0  0  0  0  0
    2.1150    3.6734   -1.1502 C   0  0  0  0  0  0  0  0  0  0  0  0
   -0.2380    6.5050    7.6551 H   0  0  0  0  0  0  0  0  0  0  0  0
    1.4411    7.1832    5.7509 H   0  0  0  0  0  0  0  0  0  0  0  0
    2.0703    6.2706    3.1284 H   0  0  0  0  0  0  0  0  0  0  0  0
    2.4476    5.3402    0.8817 H   0  0  0  0  0  0  0  0  0  0  0  0
   -1.0173    1.9216    1.6995 H   0  0  0  0  0  0  0  0  0  0  0  0
   -1.4584    2.8569    3.9114 H   0  0  0  0  0  0  0  0  0  0  0  0
   -2.2397    1.2234   -1.5233 H   0  0  0  0  0  0  0  0  0  0  0  0
   -4.3842    0.0924   -1.8634 H   0  0  0  0  0  0  0  0  0  0  0  0
   -6.5290   -1.0367   -2.2087 H   0  0  0  0  0  0  0  0  0  0  0  0
   -8.6956   -2.1772   -2.5563 H   0  0  0  0  0  0  0  0  0  0  0  0
  -10.1495   -4.1369   -2.2141 H   0  0  0  0  0  0  0  0  0  0  0  0
   -9.3264   -6.0923   -0.9292 H   0  0  0  0  0  0  0  0  0  0  0  0
   -7.0502   -6.0879    0.0131 H   0  0  0  0  0  0  0  0  0  0  0  0
   -4.8847   -4.9485    0.3619 H   0  0  0  0  0  0  0  0  0  0  0  0
   -2.7376   -3.8134    0.7105 H   0  0  0  0  0  0  0  0  0  0  0  0
   -0.5922   -2.6794    1.0596 H   0  0  0  0  0  0  0  0  0  0  0  0
    0.9477    0.4188    5.7224 H   0  0  0  0  0  0  0  0  0  0  0  0
    3.4384    0.2556    4.9108 H   0  0  0  0  0  0  0  0  0  0  0  0
    4.7881   -0.3865    2.5377 H   0  0  0  0  0  0  0  0  0  0  0  0
    1.4116   -1.6695   -1.6466 H   0  0  0  0  0  0  0  0  0  0  0  0
    2.4760   -2.3149   -3.7474 H   0  0  0  0  0  0  0  0  0  0  0  0
    7.0042   -3.1470   -6.5085 H   0  0  0  0  0  0  0  0  0  0  0  0
    7.9824   -2.4232   -4.1793 H   0  0  0  0  0  0  0  0  0  0  0  0
    6.9342   -1.6449   -1.6497 H   0  0  0  0  0  0  0  0  0  0  0  0
    5.8293   -1.0129    0.4549 H   0  0  0  0  0  0  0  0  0  0  0  0
    2.1559    1.3547   -5.2576 H   0  0  0  0  0  0  0  0  0  0  0  0
    3.1739    3.3456   -3.8833 H   0  0  0  0  0  0  0  0  0  0  0  0
    2.8535    4.4527   -1.3253 H   0  0  0  0  0  0  0  0  0  0  0  0
  1  2  4  0
  2  3  4  0
  3  4  4  0
  4  5  4  0
  5  6  4  0
  6  7  4  0
  7  8  4  0
  8  9  4  0
  9 10  4  0
 10 11  4  0
 11 12  4  0
 12 13  4  0
  8 14  4  0
 14 15  1  0
 15 16  4  0
 16 17  4  0
 17 18  4  0
 18 19  4  0
 19 20  4  0
 20 21  4  0
 21 22  4  0
 22 23  4  0
 23 24  4  0
 24 25  4  0
 25 26  4  0
 26 27  4  0
 27 28  4  0
 28 29  4  0
 29 30  4  0
 30 31  4  0
 31 32  4  0
 32 33  1  0
 33 34  4  0
 34 35  4  0
 35 36  4  0
 36 37  4  0
 37 38  4  0
 38 39  4  0
 39 40  4  0
 40 41  4  0
 41 42  4  0
 42 43  4  0
 43 44  4  0
 44 45  4  0
 45 46  4  0
 46 47  4  0
 47 48  4  0
 48 49  4  0
 49 50  4  0
 50 51  4  0
 51 52  4  0
 14 53  4  0
 53 54  4  0
 54 55  4  0
 55 56  4  0
 56 57  4  0
 57 58  4  0
 13  1  4  0
 32 15  4  0
 41 33  4  0
 51 43  4  0
 57 53  4  0
 12  3  4  0
 30 17  4  0
 38 34  4  0
 52 40  4  0
 10  5  4  0
 28 19  4  0
 49 45  4  0
 58  7  4  0
 26 21  4  0
  1 59  1  0
  2 60  1  0
  4 61  1  0
  6 62  1  0
  9 63  1  0
 11 64  1  0
 16 65  1  0
 18 66  1  0
 20 67  1  0
 22 68  1  0
 23 69  1  0
 24 70  1  0
 25 71  1  0
 27 72  1  0
 29 73  1  0
 31 74  1  0
 36 75  1  0
 37 76  1  0
 39 77  1  0
 42 78  1  0
 44 79  1  0
 47 80  1  0
 48 81  1  0
 50 82  1  0
 52 83  1  0
 55 84  1  0
 56 85  1  0
 58 86  1  0
M  END
