
     RDKit          3D

 86 99  0  0  0  0  0  0  0  0999 V2000
    8.1731   -8.0244   -1.8192 C   0  0  0  0  0  0  0  0  0  0  0  0
    7.5675   -7.4682   -0.7170 C   0  0  0  0  0  0  0  0  0  0  0  0
    6.8195   -6.2837   -1.0298 C   0  0  0  0  0  0  0  0  0  0  0  0
    6.0619   -5.4261   -0.1964 C   0  0  0  0  0  0  0  0  0  0  0  0
    5.3980   -4.3017   -0.7200 C   0  0  0  0  0  0  0  0  0  0  0  0
    4.6460   -3.4503    0.1067 C   0  0  0  0  0  0  0  0  0  0  0  0
    3.9794   -2.3252   -0.4072 C   0  0  0  0  0  0  0  0  0  0  0  0
    4.0675   -2.0446   -1.7807 C   0  0  0  0  0  0  0  0  0  0  0  0
    4.8195   -2.8965   -2.6066 C   0  0  0  0  0  0  0  0  0  0  0  0
    5.4858   -4.0216   -2.0937 C   0  0  0  0  0  0  0  0  0  0  0  0
    6.2336   -4.8632   -2.9338 C   0  0  0  0  0  0  0  0  0  0  0  0
    6.8911   -5.9840   -2.3902 C   0  0  0  0  0  0  0  0  0  0  0  0
    7.8531   -7.1357   -3.2385 S   0  0  0  0  0  0  0  0  0  0  0  0
    3.4078   -0.9230   -2.3102 C   0  0  0  0  0  0  0  0  0  0  0  0
    2.6640   -0.0851   -1.4567 C   0  0  0  0  0  0  0  0  0  0  0  0
    1.7886    1.3300   -1.8984 S   0  0  0  0  0  0  0  0  0  0  0  0
    1.2765    1.6152   -0.2937 C   0  0  0  0  0  0  0  0  0  0  0  0
    0.4218    2.7708    0.0063 C   0  0  0  0  0  0  0  0  0  0  0  0
    0.9644    4.0623   -0.1274 C   0  0  0  0  0  0  0  0  0  0  0  0
    0.2118    5.2113    0.1652 C   0  0  0  0  0  0  0  0  0  0  0  0
    0.7565    6.4989    0.0283 C   0  0  0  0  0  0  0  0  0  0  0  0
    0.0032    7.6482    0.3209 C   0  0  0  0  0  0  0  0  0  0  0  0
    0.5483    8.9360    0.1834 C   0  0  0  0  0  0  0  0  0  0  0  0
   -0.2047   10.0851    0.4762 C   0  0  0  0  0  0  0  0  0  0  0  0
    0.3397   11.3728    0.3390 C   0  0  0  0  0  0  0  0  0  0  0  0
   -0.4214   12.5048    0.6342 C   0  0  0  0  0  0  0  0  0  0  0  0
   -1.7352   12.3643    1.0699 C   0  0  0  0  0  0  0  0  0  0  0  0
   -2.2903   11.0916    1.2111 C   0  0  0  0  0  0  0  0  0  0  0  0
   -1.5372    9.9426    0.9179 C   0  0  0  0  0  0  0  0  0  0  0  0
   -2.0811    8.6547    1.0547 C   0  0  0  0  0  0  0  0  0  0  0  0
   -1.3270    7.5059    0.7615 C   0  0  0  0  0  0  0  0  0  0  0  0
   -1.8710    6.2178    0.8984 C   0  0  0  0  0  0  0  0  0  0  0  0
   -1.1172    5.0691    0.6061 C   0  0  0  0  0  0  0  0  0  0  0  0
   -1.6604    3.7815    0.7434 C   0  0  0  0  0  0  0  0  0  0  0  0
   -0.9074    2.6286    0.4536 C   0  0  0  0  0  0  0  0  0  0  0  0
   -1.5501    1.3167    0.5959 C   0  0  0  0  0  0  0  0  0  0  0  0
   -1.8755    0.4034   -0.3843 C   0  0  0  0  0  0  0  0  0  0  0  0
   -2.4846   -0.7881    0.1328 C   0  0  0  0  0  0  0  0  0  0  0  0
   -2.9527   -1.9464   -0.5325 C   0  0  0  0  0  0  0  0  0  0  0  0
   -3.5266   -3.0138    0.1817 C   0  0  0  0  0  0  0  0  0  0  0  0
   -3.6373   -2.9326    1.5796 C   0  0  0  0  0  0  0  0  0  0  0  0
   -4.2101   -4.0039    2.2841 C   0  0  0  0  0  0  0  0  0  0  0  0
   -4.6764   -5.1538    1.6259 C   0  0  0  0  0  0  0  0  0  0  0  0
   -5.2473   -6.2161    2.3459 C   0  0  0  0  0  0  0  0  0  0  0  0
   -5.7061   -7.3565    1.6581 C   0  0  0  0  0  0  0  0  0  0  0  0
   -6.4329   -8.7605    2.3453 S   0  0  0  0  0  0  0  0  0  0  0  0
   -6.6173   -9.5016    0.8212 C   0  0  0  0  0  0  0  0  0  0  0  0
   -6.1407   -8.7094   -0.1968 C   0  0  0  0  0  0  0  0  0  0  0  0
   -5.6083   -7.4609    0.2706 C   0  0  0  0  0  0  0  0  0  0  0  0
   -5.0304   -6.3820   -0.4407 C   0  0  0  0  0  0  0  0  0  0  0  0
   -4.5663   -5.2344    0.2278 C   0  0  0  0  0  0  0  0  0  0  0  0
   -3.9926   -4.1636   -0.4776 C   0  0  0  0  0  0  0  0  0  0  0  0
   -3.1772   -1.7895    2.2538 C   0  0  0  0  0  0  0  0  0  0  0  0
   -2.6057   -0.7319    1.5201 C   0  0  0  0  0  0  0  0  0  0  0  0
   -1.9820    0.7453    2.1466 S   0  0  0  0  0  0  0  0  0  0  0  0
    1.7588    0.6504    0.5653 C   0  0  0  0  0  0  0  0  0  0  0  0
    2.5621   -0.3411   -0.0906 C   0  0  0  0  0  0  0  0  0  0  0  0
    3.2286   -1.4774    0.4278 C   0  0  0  0  0  0  0  0  0  0  0  0
    8.7895   -8.9119   -1.8589 H   0  0  0  0  0  0  0  0  0  0  0  0
    7.6526   -7.8880    0.2777 H   0  0  0  0  0  0  0  0  0  0  0  0
    5.9995   -5.6510    0.8659 H   0  0  0  0  0  0  0  0  0  0  0  0
    4.5785   -3.6673    1.1715 H   0  0  0  0  0  0  0  0  0  0  0  0
    4.8869   -2.6789   -3.6717 H   0  0  0  0  0  0  0  0  0  0  0  0
    6.3108   -4.6593   -3.9987 H   0  0  0  0  0  0  0  0  0  0  0  0
    3.4671   -0.6935   -3.3711 H   0  0  0  0  0  0  0  0  0  0  0  0
    1.9962    4.1712   -0.4595 H   0  0  0  0  0  0  0  0  0  0  0  0
    1.7846    6.6093   -0.3127 H   0  0  0  0  0  0  0  0  0  0  0  0
    1.5762    9.0467   -0.1573 H   0  0  0  0  0  0  0  0  0  0  0  0
    1.3648   11.5037   -0.0002 H   0  0  0  0  0  0  0  0  0  0  0  0
    0.0127   13.4951    0.5235 H   0  0  0  0  0  0  0  0  0  0  0  0
   -2.3296   13.2446    1.3003 H   0  0  0  0  0  0  0  0  0  0  0  0
   -3.3190   11.0032    1.5532 H   0  0  0  0  0  0  0  0  0  0  0  0
   -3.1091    8.5455    1.3955 H   0  0  0  0  0  0  0  0  0  0  0  0
   -2.8992    6.1081    1.2394 H   0  0  0  0  0  0  0  0  0  0  0  0
   -2.6920    3.6705    1.0757 H   0  0  0  0  0  0  0  0  0  0  0  0
   -1.6822    0.5735   -1.4369 H   0  0  0  0  0  0  0  0  0  0  0  0
   -2.8611   -2.0006   -1.6149 H   0  0  0  0  0  0  0  0  0  0  0  0
   -4.2941   -3.9415    3.3681 H   0  0  0  0  0  0  0  0  0  0  0  0
   -5.3393   -6.1682    3.4279 H   0  0  0  0  0  0  0  0  0  0  0  0
   -7.0660  -10.4824    0.7425 H   0  0  0  0  0  0  0  0  0  0  0  0
   -6.1691   -9.0064   -1.2379 H   0  0  0  0  0  0  0  0  0  0  0  0
   -4.9491   -6.4529   -1.5229 H   0  0  0  0  0  0  0  0  0  0  0  0
   -3.9063   -4.2260   -1.5612 H   0  0  0  0  0  0  0  0  0  0  0  0
   -3.2563   -1.7127    3.3352 H   0  0  0  0  0  0  0  0  0  0  0  0
    1.5461    0.6466    1.6278 H   0  0  0  0  0  0  0  0  0  0  0  0
    3.1515   -1.6878    1.4920 H   0  0  0  0  0  0  0  0  0  0  0  0
  1  2  4  0
  2  3  4  0
  3  4  4  0
  4  5  4  0
  5  6  4  0
  6  7  4  0
  7  8  4  0
  8  9  4  0
  9 10  4  0
 10 11  4  0
 11 12  4  0
 12 13  4  0
  8 14  4  0
 14 15  4  0
 15 16  4  0
 16 17  4  0
 17 18  1  0
 18 19  4  0
 19 20  4  0
 20 21  4  0
 21 22  4  0
 22 23  4  0
 23 24  4  0
 24 25  4  0
 25 26  4  0
 26 27  4  0
 27 28  4  0
 28 29  4  0
 29 30  4  0
 30 31  4  0
 31 32  4  0
 32 33  4  0
 33 34  4  0
 34 35  4  0
 35 36  1  0
 36 37  4  0
 37 38  4  0
 38 39  4  0
 39 40  4  0
 40 41  4  0
 41 42  4  0
 42 43  4  0
 43 44  4  0
 44 45  4  0
 45 46  4  0
 46 47  4  0
 47 48  4  0
 48 49  4  0
 49 50  4  0
 50 51  4  0
 51 52  4  0
 41 53  4  0
 53 54  4  0
 54 55  4  0
 17 56  4  0
 56 57  4  0
 57 58  4  0
 13  1  4  0
 57 15  4  0
 12  3  4  0
 35 18  4  0
 55 36  4  0
 10  5  4  0
 33 20  4  0
 54 38  4  0
 58  7  4  0
 31 22  4  0
 52 40  4  0
 29 24  4  0
 51 43  4  0
 49 45  4  0
  1 59  1  0
  2 60  1  0
  4 61  1  0
  6 62  1  0
  9 63  1  0
 11 64  1  0
 14 65  1  0
 19 66  1  0
 21 67  1  0
 23 68  1  0
 25 69  1  0
 26 70  1  0
 27 71  1  0
 28 72  1  0
 30 73  1  0
 32 74  1  0
 34 75  1  0
 37 76  1  0
 39 77  1  0
 42 78  1  0
 44 79  1  0
 47 80  1  0
 48 81  1  0
 50 82  1  0
 52 83  1  0
 53 84  1  0
 56 85  1  0
 58 86  1  0
M  END
