
     RDKit          3D

 86 99  0  0  0  0  0  0  0  0999 V2000
    4.7099   -7.0420    3.6121 C   0  0  0  0  0  0  0  0  0  0  0  0
    3.8007   -6.0110    3.5767 C   0  0  0  0  0  0  0  0  0  0  0  0
    3.9213   -5.2011    2.3978 C   0  0  0  0  0  0  0  0  0  0  0  0
    3.1893   -4.0624    1.9837 C   0  0  0  0  0  0  0  0  0  0  0  0
    3.4802   -3.4116    0.7713 C   0  0  0  0  0  0  0  0  0  0  0  0
    2.7556   -2.2804    0.3626 C   0  0  0  0  0  0  0  0  0  0  0  0
    3.0334   -1.6288   -0.8499 C   0  0  0  0  0  0  0  0  0  0  0  0
    4.0565   -2.1199   -1.6753 C   0  0  0  0  0  0  0  0  0  0  0  0
    4.7869   -3.2467   -1.2623 C   0  0  0  0  0  0  0  0  0  0  0  0
    4.5112   -3.8992   -0.0491 C   0  0  0  0  0  0  0  0  0  0  0  0
    5.2469   -5.0281    0.3481 C   0  0  0  0  0  0  0  0  0  0  0  0
    4.9422   -5.6641    1.5676 C   0  0  0  0  0  0  0  0  0  0  0  0
    5.7161   -7.0519    2.2360 S   0  0  0  0  0  0  0  0  0  0  0  0
    4.3330   -1.4844   -2.8968 C   0  0  0  0  0  0  0  0  0  0  0  0
    3.5727   -0.3649   -3.2907 C   0  0  0  0  0  0  0  0  0  0  0  0
    3.7492    0.5388   -4.7456 S   0  0  0  0  0  0  0  0  0  0  0  0
    2.4740    1.5903   -4.3351 C   0  0  0  0  0  0  0  0  0  0  0  0
    1.9058    1.2765   -3.1178 C   0  0  0  0  0  0  0  0  0  0  0  0
    0.7779    2.0560   -2.6108 C   0  0  0  0  0  0  0  0  0  0  0  0
    1.0200    3.3744   -2.1905 C   0  0  0  0  0  0  0  0  0  0  0  0
   -0.0130    4.1805   -1.6850 C   0  0  0  0  0  0  0  0  0  0  0  0
    0.2277    5.4975   -1.2613 C   0  0  0  0  0  0  0  0  0  0  0  0
   -0.8046    6.3045   -0.7545 C   0  0  0  0  0  0  0  0  0  0  0  0
   -0.5623    7.6219   -0.3307 C   0  0  0  0  0  0  0  0  0  0  0  0
   -1.5938    8.4296    0.1756 C   0  0  0  0  0  0  0  0  0  0  0  0
   -1.3519    9.7468    0.5991 C   0  0  0  0  0  0  0  0  0  0  0  0
   -2.3874   10.5373    1.0996 C   0  0  0  0  0  0  0  0  0  0  0  0
   -3.6769   10.0216    1.1830 C   0  0  0  0  0  0  0  0  0  0  0  0
   -3.9331    8.7144    0.7662 C   0  0  0  0  0  0  0  0  0  0  0  0
   -2.9015    7.9062    0.2603 C   0  0  0  0  0  0  0  0  0  0  0  0
   -3.1425    6.5887   -0.1632 C   0  0  0  0  0  0  0  0  0  0  0  0
   -2.1099    5.7815   -0.6696 C   0  0  0  0  0  0  0  0  0  0  0  0
   -2.3506    4.4637   -1.0930 C   0  0  0  0  0  0  0  0  0  0  0  0
   -1.3182    3.6570   -1.5989 C   0  0  0  0  0  0  0  0  0  0  0  0
   -1.5592    2.3388   -2.0175 C   0  0  0  0  0  0  0  0  0  0  0  0
   -0.5251    1.5318   -2.5201 C   0  0  0  0  0  0  0  0  0  0  0  0
   -0.8563    0.1620   -2.9072 C   0  0  0  0  0  0  0  0  0  0  0  0
   -0.8320   -0.2302   -4.2286 C   0  0  0  0  0  0  0  0  0  0  0  0
   -1.2366   -1.8740   -4.4226 S   0  0  0  0  0  0  0  0  0  0  0  0
   -1.4759   -2.0942   -2.7316 C   0  0  0  0  0  0  0  0  0  0  0  0
   -1.8515   -3.2856   -2.0790 C   0  0  0  0  0  0  0  0  0  0  0  0
   -2.0048   -3.2976   -0.6828 C   0  0  0  0  0  0  0  0  0  0  0  0
   -1.7853   -2.1233    0.0537 C   0  0  0  0  0  0  0  0  0  0  0  0
   -1.9402   -2.1467    1.4494 C   0  0  0  0  0  0  0  0  0  0  0  0
   -2.3109   -3.3192    2.1271 C   0  0  0  0  0  0  0  0  0  0  0  0
   -2.4639   -3.3331    3.5252 C   0  0  0  0  0  0  0  0  0  0  0  0
   -2.8396   -4.5142    4.2090 C   0  0  0  0  0  0  0  0  0  0  0  0
   -3.0515   -4.7560    5.6079 C   0  0  0  0  0  0  0  0  0  0  0  0
   -3.4132   -6.0551    5.8768 C   0  0  0  0  0  0  0  0  0  0  0  0
   -3.5026   -6.9982    4.4595 S   0  0  0  0  0  0  0  0  0  0  0  0
   -3.0546   -5.6693    3.4571 C   0  0  0  0  0  0  0  0  0  0  0  0
   -2.9059   -5.6757    2.0562 C   0  0  0  0  0  0  0  0  0  0  0  0
   -2.5327   -4.4955    1.3920 C   0  0  0  0  0  0  0  0  0  0  0  0
   -2.3769   -4.4699   -0.0041 C   0  0  0  0  0  0  0  0  0  0  0  0
   -1.4141   -0.9449   -0.6156 C   0  0  0  0  0  0  0  0  0  0  0  0
   -1.2506   -0.9127   -2.0251 C   0  0  0  0  0  0  0  0  0  0  0  0
    2.5480    0.1443   -2.4916 C   0  0  0  0  0  0  0  0  0  0  0  0
    2.3008   -0.4988   -1.2519 C   0  0  0  0  0  0  0  0  0  0  0  0
    4.8315   -7.7916    4.3819 H   0  0  0  0  0  0  0  0  0  0  0  0
    3.0747   -5.8375    4.3615 H   0  0  0  0  0  0  0  0  0  0  0  0
    2.3888   -3.6942    2.6213 H   0  0  0  0  0  0  0  0  0  0  0  0
    1.9532   -1.9049    0.9958 H   0  0  0  0  0  0  0  0  0  0  0  0
    5.5829   -3.6271   -1.9009 H   0  0  0  0  0  0  0  0  0  0  0  0
    6.0477   -5.4175   -0.2752 H   0  0  0  0  0  0  0  0  0  0  0  0
    5.1220   -1.8530   -3.5472 H   0  0  0  0  0  0  0  0  0  0  0  0
    2.1940    2.3841   -5.0149 H   0  0  0  0  0  0  0  0  0  0  0  0
    2.0316    3.7739   -2.2498 H   0  0  0  0  0  0  0  0  0  0  0  0
    1.2363    5.9027   -1.3263 H   0  0  0  0  0  0  0  0  0  0  0  0
    0.4461    8.0268   -0.3957 H   0  0  0  0  0  0  0  0  0  0  0  0
   -0.3507   10.1682    0.5420 H   0  0  0  0  0  0  0  0  0  0  0  0
   -2.1860   11.5550    1.4239 H   0  0  0  0  0  0  0  0  0  0  0  0
   -4.4847   10.6357    1.5726 H   0  0  0  0  0  0  0  0  0  0  0  0
   -4.9481    8.3302    0.8394 H   0  0  0  0  0  0  0  0  0  0  0  0
   -4.1518    6.1862   -0.0977 H   0  0  0  0  0  0  0  0  0  0  0  0
   -3.3596    4.0596   -1.0271 H   0  0  0  0  0  0  0  0  0  0  0  0
   -2.5673    1.9307   -1.9528 H   0  0  0  0  0  0  0  0  0  0  0  0
   -0.5839    0.3659   -5.0965 H   0  0  0  0  0  0  0  0  0  0  0  0
   -2.0165   -4.1875   -2.6630 H   0  0  0  0  0  0  0  0  0  0  0  0
   -1.7735   -1.2334    2.0184 H   0  0  0  0  0  0  0  0  0  0  0  0
   -2.2931   -2.4268    4.1017 H   0  0  0  0  0  0  0  0  0  0  0  0
   -2.9412   -4.0029    6.3784 H   0  0  0  0  0  0  0  0  0  0  0  0
   -3.6297   -6.4964    6.8400 H   0  0  0  0  0  0  0  0  0  0  0  0
   -3.0813   -6.5940    1.5018 H   0  0  0  0  0  0  0  0  0  0  0  0
   -2.5496   -5.3817   -0.5746 H   0  0  0  0  0  0  0  0  0  0  0  0
   -1.2380   -0.0340   -0.0476 H   0  0  0  0  0  0  0  0  0  0  0  0
    1.5155   -0.1098   -0.6091 H   0  0  0  0  0  0  0  0  0  0  0  0
  1  2  4  0
  2  3  4  0
  3  4  4  0
  4  5  4  0
  5  6  4  0
  6  7  4  0
  7  8  4  0
  8  9  4  0
  9 10  4  0
 10 11  4  0
 11 12  4  0
 12 13  4  0
  8 14  4  0
 14 15  4  0
 15 16  4  0
 16 17  4  0
 17 18  4  0
 18 19  1  0
 19 20  4  0
 20 21  4  0
 21 22  4  0
 22 23  4  0
 23 24  4  0
 24 25  4  0
 25 26  4  0
 26 27  4  0
 27 28  4  0
 28 29  4  0
 29 30  4  0
 30 31  4  0
 31 32  4  0
 32 33  4  0
 33 34  4  0
 34 35  4  0
 35 36  4  0
 36 37  1  0
 37 38  4  0
 38 39  4  0
 39 40  4  0
 40 41  4  0
 41 42  4  0
 42 43  4  0
 43 44  4  0
 44 45  4  0
 45 46  4  0
 46 47  4  0
 47 48  4  0
 48 49  4  0
 49 50  4  0
 50 51  4  0
 51 52  4  0
 52 53  4  0
 53 54  4  0
 43 55  4  0
 55 56  4  0
 18 57  4  0
 57 58  4  0
 13  1  4  0
 57 15  4  0
 12  3  4  0
 36 19  4  0
 56 37  4  0
 10  5  4  0
 34 21  4  0
 56 40  4  0
 58  7  4  0
 32 23  4  0
 54 42  4  0
 30 25  4  0
 53 45  4  0
 51 47  4  0
  1 59  1  0
  2 60  1  0
  4 61  1  0
  6 62  1  0
  9 63  1  0
 11 64  1  0
 14 65  1  0
 17 66  1  0
 20 67  1  0
 22 68  1  0
 24 69  1  0
 26 70  1  0
 27 71  1  0
 28 72  1  0
 29 73  1  0
 31 74  1  0
 33 75  1  0
 35 76  1  0
 38 77  1  0
 41 78  1  0
 44 79  1  0
 46 80  1  0
 48 81  1  0
 49 82  1  0
 52 83  1  0
 54 84  1  0
 55 85  1  0
 58 86  1  0
M  END
