
     RDKit          3D

 86 99  0  0  0  0  0  0  0  0999 V2000
   -1.9952   -5.2813   10.1670 C   0  0  0  0  0  0  0  0  0  0  0  0
   -1.1658   -5.4875    9.0898 C   0  0  0  0  0  0  0  0  0  0  0  0
   -1.5300   -4.6994    7.9465 C   0  0  0  0  0  0  0  0  0  0  0  0
   -0.9447   -4.6175    6.6600 C   0  0  0  0  0  0  0  0  0  0  0  0
   -1.4720   -3.7648    5.6730 C   0  0  0  0  0  0  0  0  0  0  0  0
   -2.5996   -2.9795    5.9650 C   0  0  0  0  0  0  0  0  0  0  0  0
   -3.1193   -2.1323    4.9724 C   0  0  0  0  0  0  0  0  0  0  0  0
   -2.5399   -2.0506    3.6952 C   0  0  0  0  0  0  0  0  0  0  0  0
   -3.0733   -1.1996    2.7129 C   0  0  0  0  0  0  0  0  0  0  0  0
   -2.4718   -1.1420    1.4405 C   0  0  0  0  0  0  0  0  0  0  0  0
   -2.9649   -0.1756    0.1037 S   0  0  0  0  0  0  0  0  0  0  0  0
   -1.7123   -0.7694   -0.8949 C   0  0  0  0  0  0  0  0  0  0  0  0
   -1.5846   -0.2841   -2.2749 C   0  0  0  0  0  0  0  0  0  0  0  0
   -2.5892   -0.6192   -3.2019 C   0  0  0  0  0  0  0  0  0  0  0  0
   -2.5200   -0.2097   -4.5435 C   0  0  0  0  0  0  0  0  0  0  0  0
   -3.5257   -0.5446   -5.4657 C   0  0  0  0  0  0  0  0  0  0  0  0
   -3.4565   -0.1339   -6.8077 C   0  0  0  0  0  0  0  0  0  0  0  0
   -4.4627   -0.4687   -7.7298 C   0  0  0  0  0  0  0  0  0  0  0  0
   -4.3933   -0.0581   -9.0714 C   0  0  0  0  0  0  0  0  0  0  0  0
   -5.3988   -0.3924   -9.9937 C   0  0  0  0  0  0  0  0  0  0  0  0
   -5.3151    0.0232  -11.3235 C   0  0  0  0  0  0  0  0  0  0  0  0
   -4.2260    0.7778  -11.7482 C   0  0  0  0  0  0  0  0  0  0  0  0
   -3.2190    1.1181  -10.8437 C   0  0  0  0  0  0  0  0  0  0  0  0
   -3.2889    0.7073   -9.5020 C   0  0  0  0  0  0  0  0  0  0  0  0
   -2.2837    1.0415   -8.5794 C   0  0  0  0  0  0  0  0  0  0  0  0
   -2.3541    0.6301   -7.2376 C   0  0  0  0  0  0  0  0  0  0  0  0
   -1.3485    0.9642   -6.3149 C   0  0  0  0  0  0  0  0  0  0  0  0
   -1.4179    0.5525   -4.9736 C   0  0  0  0  0  0  0  0  0  0  0  0
   -0.4121    0.8853   -4.0518 C   0  0  0  0  0  0  0  0  0  0  0  0
   -0.4773    0.4733   -2.7077 C   0  0  0  0  0  0  0  0  0  0  0  0
    0.5987    0.8804   -1.7958 C   0  0  0  0  0  0  0  0  0  0  0  0
    0.5401    1.7414   -0.7204 C   0  0  0  0  0  0  0  0  0  0  0  0
    1.7983    1.8931   -0.0479 C   0  0  0  0  0  0  0  0  0  0  0  0
    2.1520    2.6724    1.0796 C   0  0  0  0  0  0  0  0  0  0  0  0
    3.4668    2.6741    1.5798 C   0  0  0  0  0  0  0  0  0  0  0  0
    3.8194    3.4487    2.6976 C   0  0  0  0  0  0  0  0  0  0  0  0
    5.1297    3.4561    3.2045 C   0  0  0  0  0  0  0  0  0  0  0  0
    6.1113    2.6701    2.5784 C   0  0  0  0  0  0  0  0  0  0  0  0
    5.7581    1.8963    1.4605 C   0  0  0  0  0  0  0  0  0  0  0  0
    4.4483    1.8886    0.9531 C   0  0  0  0  0  0  0  0  0  0  0  0
    4.1122    1.1095   -0.1665 C   0  0  0  0  0  0  0  0  0  0  0  0
    2.7900    1.1227   -0.6523 C   0  0  0  0  0  0  0  0  0  0  0  0
    2.1726    0.2486   -2.0009 S   0  0  0  0  0  0  0  0  0  0  0  0
    7.4261    2.6663    3.0731 C   0  0  0  0  0  0  0  0  0  0  0  0
    7.7501    3.4529    4.1959 C   0  0  0  0  0  0  0  0  0  0  0  0
    9.2908    3.5909    4.9566 S   0  0  0  0  0  0  0  0  0  0  0  0
    8.6997    4.6851    6.1226 C   0  0  0  0  0  0  0  0  0  0  0  0
    7.3613    4.9484    5.9487 C   0  0  0  0  0  0  0  0  0  0  0  0
    6.7939    4.2419    4.8352 C   0  0  0  0  0  0  0  0  0  0  0  0
    5.4735    4.2348    4.3246 C   0  0  0  0  0  0  0  0  0  0  0  0
   -0.9265   -1.6822   -0.2237 C   0  0  0  0  0  0  0  0  0  0  0  0
   -1.3522   -1.9104    1.1273 C   0  0  0  0  0  0  0  0  0  0  0  0
   -0.8240   -2.7604    2.1283 C   0  0  0  0  0  0  0  0  0  0  0  0
   -1.4116   -2.8351    3.4042 C   0  0  0  0  0  0  0  0  0  0  0  0
   -0.8914   -3.6828    4.3964 C   0  0  0  0  0  0  0  0  0  0  0  0
   -3.1916   -3.0495    7.2370 C   0  0  0  0  0  0  0  0  0  0  0  0
   -2.6484   -3.9092    8.2116 C   0  0  0  0  0  0  0  0  0  0  0  0
   -3.2173   -4.1438    9.8219 S   0  0  0  0  0  0  0  0  0  0  0  0
   -1.9419   -5.7453   11.1422 H   0  0  0  0  0  0  0  0  0  0  0  0
   -0.3288   -6.1743    9.1124 H   0  0  0  0  0  0  0  0  0  0  0  0
   -0.0724   -5.2299    6.4431 H   0  0  0  0  0  0  0  0  0  0  0  0
   -3.9938   -1.5238    5.1989 H   0  0  0  0  0  0  0  0  0  0  0  0
   -3.9459   -0.5865    2.9231 H   0  0  0  0  0  0  0  0  0  0  0  0
   -3.4374   -1.2174   -2.8707 H   0  0  0  0  0  0  0  0  0  0  0  0
   -4.3783   -1.1347   -5.1335 H   0  0  0  0  0  0  0  0  0  0  0  0
   -5.3147   -1.0593   -7.3979 H   0  0  0  0  0  0  0  0  0  0  0  0
   -6.2582   -0.9815   -9.6812 H   0  0  0  0  0  0  0  0  0  0  0  0
   -6.1005   -0.2427  -12.0261 H   0  0  0  0  0  0  0  0  0  0  0  0
   -4.1589    1.1025  -12.7833 H   0  0  0  0  0  0  0  0  0  0  0  0
   -2.3756    1.7085  -11.1949 H   0  0  0  0  0  0  0  0  0  0  0  0
   -1.4319    1.6321   -8.9119 H   0  0  0  0  0  0  0  0  0  0  0  0
   -0.4961    1.5544   -6.6475 H   0  0  0  0  0  0  0  0  0  0  0  0
    0.4368    1.4830   -4.3821 H   0  0  0  0  0  0  0  0  0  0  0  0
   -0.3696    2.2467   -0.4182 H   0  0  0  0  0  0  0  0  0  0  0  0
    1.3850    3.2768    1.5587 H   0  0  0  0  0  0  0  0  0  0  0  0
    3.0586    4.0584    3.1828 H   0  0  0  0  0  0  0  0  0  0  0  0
    6.5190    1.2868    0.9750 H   0  0  0  0  0  0  0  0  0  0  0  0
    4.8607    0.4968   -0.6622 H   0  0  0  0  0  0  0  0  0  0  0  0
    8.1965    2.0633    2.5995 H   0  0  0  0  0  0  0  0  0  0  0  0
    9.3601    5.0839    6.8804 H   0  0  0  0  0  0  0  0  0  0  0  0
    6.8040    5.6198    6.5902 H   0  0  0  0  0  0  0  0  0  0  0  0
    4.7198    4.8463    4.8156 H   0  0  0  0  0  0  0  0  0  0  0  0
   -0.0737   -2.1732   -0.6776 H   0  0  0  0  0  0  0  0  0  0  0  0
    0.0508   -3.3629    1.8941 H   0  0  0  0  0  0  0  0  0  0  0  0
   -0.0174   -4.2918    4.1702 H   0  0  0  0  0  0  0  0  0  0  0  0
   -4.0642   -2.4479    7.4781 H   0  0  0  0  0  0  0  0  0  0  0  0
  1  2  4  0
  2  3  4  0
  3  4  4  0
  4  5  4  0
  5  6  4  0
  6  7  4  0
  7  8  4  0
  8  9  4  0
  9 10  4  0
 10 11  4  0
 11 12  4  0
 12 13  1  0
 13 14  4  0
 14 15  4  0
 15 16  4  0
 16 17  4  0
 17 18  4  0
 18 19  4  0
 19 20  4  0
 20 21  4  0
 21 22  4  0
 22 23  4  0
 23 24  4  0
 24 25  4  0
 25 26  4  0
 26 27  4  0
 27 28  4  0
 28 29  4  0
 29 30  4  0
 30 31  1  0
 31 32  4  0
 32 33  4  0
 33 34  4  0
 34 35  4  0
 35 36  4  0
 36 37  4  0
 37 38  4  0
 38 39  4  0
 39 40  4  0
 40 41  4  0
 41 42  4  0
 42 43  4  0
 38 44  4  0
 44 45  4  0
 45 46  4  0
 46 47  4  0
 47 48  4  0
 48 49  4  0
 49 50  4  0
 12 51  4  0
 51 52  4  0
 52 53  4  0
 53 54  4  0
 54 55  4  0
  6 56  4  0
 56 57  4  0
 57 58  4  0
 58  1  4  0
 57  3  4  0
 55  5  4  0
 54  8  4  0
 52 10  4  0
 30 13  4  0
 43 31  4  0
 49 45  4  0
 28 15  4  0
 42 33  4  0
 26 17  4  0
 40 35  4  0
 24 19  4  0
 50 37  4  0
  1 59  1  0
  2 60  1  0
  4 61  1  0
  7 62  1  0
  9 63  1  0
 14 64  1  0
 16 65  1  0
 18 66  1  0
 20 67  1  0
 21 68  1  0
 22 69  1  0
 23 70  1  0
 25 71  1  0
 27 72  1  0
 29 73  1  0
 32 74  1  0
 34 75  1  0
 36 76  1  0
 39 77  1  0
 41 78  1  0
 44 79  1  0
 47 80  1  0
 48 81  1  0
 50 82  1  0
 51 83  1  0
 53 84  1  0
 55 85  1  0
 56 86  1  0
M  END
