
     RDKit          3D

 86 99  0  0  0  0  0  0  0  0999 V2000
   -6.7614   -4.2677   -4.2212 C   0  0  0  0  0  0  0  0  0  0  0  0
   -7.1973   -3.4272   -3.2239 C   0  0  0  0  0  0  0  0  0  0  0  0
   -6.1222   -2.8837   -2.4430 C   0  0  0  0  0  0  0  0  0  0  0  0
   -6.1406   -1.9931   -1.3427 C   0  0  0  0  0  0  0  0  0  0  0  0
   -4.9476   -1.5824   -0.7188 C   0  0  0  0  0  0  0  0  0  0  0  0
   -3.7191   -2.0615   -1.1887 C   0  0  0  0  0  0  0  0  0  0  0  0
   -3.6831   -2.9516   -2.2754 C   0  0  0  0  0  0  0  0  0  0  0  0
   -4.8856   -3.3484   -2.8912 C   0  0  0  0  0  0  0  0  0  0  0  0
   -5.0629   -4.4150   -4.2336 S   0  0  0  0  0  0  0  0  0  0  0  0
   -2.5362   -1.6346   -0.5603 C   0  0  0  0  0  0  0  0  0  0  0  0
   -2.5236   -0.7211    0.5190 C   0  0  0  0  0  0  0  0  0  0  0  0
   -3.7711   -0.2845    1.0003 C   0  0  0  0  0  0  0  0  0  0  0  0
   -4.9583   -0.7050    0.3752 C   0  0  0  0  0  0  0  0  0  0  0  0
   -3.8335    0.5676    2.1102 C   0  0  0  0  0  0  0  0  0  0  0  0
   -2.6681    0.9694    2.7982 C   0  0  0  0  0  0  0  0  0  0  0  0
   -2.5346    1.7977    3.9642 C   0  0  0  0  0  0  0  0  0  0  0  0
   -1.2310    1.9544    4.3628 C   0  0  0  0  0  0  0  0  0  0  0  0
   -0.1580    1.1051    3.3558 S   0  0  0  0  0  0  0  0  0  0  0  0
   -1.4297    0.5428    2.3113 C   0  0  0  0  0  0  0  0  0  0  0  0
   -1.3191   -0.2494    1.1288 C   0  0  0  0  0  0  0  0  0  0  0  0
    0.0252   -0.5530    0.5790 C   0  0  0  0  0  0  0  0  0  0  0  0
    0.7848   -1.5742    1.1846 C   0  0  0  0  0  0  0  0  0  0  0  0
    2.0750   -1.9026    0.7403 C   0  0  0  0  0  0  0  0  0  0  0  0
    2.8247   -2.9178    1.3569 C   0  0  0  0  0  0  0  0  0  0  0  0
    4.1174   -3.2452    0.9153 C   0  0  0  0  0  0  0  0  0  0  0  0
    4.8676   -4.2595    1.5338 C   0  0  0  0  0  0  0  0  0  0  0  0
    6.1598   -4.5875    1.0919 C   0  0  0  0  0  0  0  0  0  0  0  0
    6.9107   -5.6009    1.7101 C   0  0  0  0  0  0  0  0  0  0  0  0
    8.1935   -5.9154    1.2590 C   0  0  0  0  0  0  0  0  0  0  0  0
    8.7415   -5.2213    0.1848 C   0  0  0  0  0  0  0  0  0  0  0  0
    8.0079   -4.2114   -0.4396 C   0  0  0  0  0  0  0  0  0  0  0  0
    6.7159   -3.8830    0.0030 C   0  0  0  0  0  0  0  0  0  0  0  0
    5.9653   -2.8686   -0.6140 C   0  0  0  0  0  0  0  0  0  0  0  0
    4.6729   -2.5406   -0.1705 C   0  0  0  0  0  0  0  0  0  0  0  0
    3.9220   -1.5250   -0.7861 C   0  0  0  0  0  0  0  0  0  0  0  0
    2.6299   -1.1976   -0.3428 C   0  0  0  0  0  0  0  0  0  0  0  0
    1.8791   -0.1844   -0.9595 C   0  0  0  0  0  0  0  0  0  0  0  0
    0.5794    0.1485   -0.5275 C   0  0  0  0  0  0  0  0  0  0  0  0
   -0.1570    1.2139   -1.2521 C   0  0  0  0  0  0  0  0  0  0  0  0
   -0.7874    0.9082   -2.4961 C   0  0  0  0  0  0  0  0  0  0  0  0
   -0.6894   -0.5602   -3.4227 S   0  0  0  0  0  0  0  0  0  0  0  0
   -1.7647    0.0051   -4.6105 C   0  0  0  0  0  0  0  0  0  0  0  0
   -2.1697    1.2916   -4.3592 C   0  0  0  0  0  0  0  0  0  0  0  0
   -1.5994    1.8336   -3.1572 C   0  0  0  0  0  0  0  0  0  0  0  0
   -1.7613    3.1134   -2.5839 C   0  0  0  0  0  0  0  0  0  0  0  0
   -1.0875    3.4811   -1.4124 C   0  0  0  0  0  0  0  0  0  0  0  0
   -1.2341    4.7834   -0.9026 C   0  0  0  0  0  0  0  0  0  0  0  0
   -0.5556    5.2079    0.2488 C   0  0  0  0  0  0  0  0  0  0  0  0
    0.3004    4.3101    0.8977 C   0  0  0  0  0  0  0  0  0  0  0  0
    1.0001    4.7151    2.0466 C   0  0  0  0  0  0  0  0  0  0  0  0
    0.8272    6.0213    2.5433 C   0  0  0  0  0  0  0  0  0  0  0  0
    1.5760    6.7108    3.9341 S   0  0  0  0  0  0  0  0  0  0  0  0
    0.7882    8.2058    3.7083 C   0  0  0  0  0  0  0  0  0  0  0  0
   -0.0301    8.1943    2.6032 C   0  0  0  0  0  0  0  0  0  0  0  0
   -0.0209    6.9340    1.9158 C   0  0  0  0  0  0  0  0  0  0  0  0
   -0.7126    6.5120    0.7549 C   0  0  0  0  0  0  0  0  0  0  0  0
    0.4399    3.0088    0.3838 C   0  0  0  0  0  0  0  0  0  0  0  0
   -0.2631    2.5506   -0.7543 C   0  0  0  0  0  0  0  0  0  0  0  0
   -7.3604   -4.8036   -4.9446 H   0  0  0  0  0  0  0  0  0  0  0  0
   -8.2438   -3.2057   -3.0544 H   0  0  0  0  0  0  0  0  0  0  0  0
   -7.0983   -1.6250   -0.9824 H   0  0  0  0  0  0  0  0  0  0  0  0
   -2.7354   -3.3301   -2.6501 H   0  0  0  0  0  0  0  0  0  0  0  0
   -1.5908   -2.0343   -0.9246 H   0  0  0  0  0  0  0  0  0  0  0  0
   -5.9143   -0.3444    0.7521 H   0  0  0  0  0  0  0  0  0  0  0  0
   -4.7968    0.9118    2.4806 H   0  0  0  0  0  0  0  0  0  0  0  0
   -3.3681    2.2538    4.4837 H   0  0  0  0  0  0  0  0  0  0  0  0
   -0.8594    2.5239    5.2034 H   0  0  0  0  0  0  0  0  0  0  0  0
    0.3555   -2.1174    2.0261 H   0  0  0  0  0  0  0  0  0  0  0  0
    2.3941   -3.4619    2.1959 H   0  0  0  0  0  0  0  0  0  0  0  0
    4.4391   -4.8026    2.3743 H   0  0  0  0  0  0  0  0  0  0  0  0
    6.4997   -6.1548    2.5512 H   0  0  0  0  0  0  0  0  0  0  0  0
    8.7631   -6.7020    1.7468 H   0  0  0  0  0  0  0  0  0  0  0  0
    9.7401   -5.4646   -0.1683 H   0  0  0  0  0  0  0  0  0  0  0  0
    8.4534   -3.6803   -1.2778 H   0  0  0  0  0  0  0  0  0  0  0  0
    6.3956   -2.3248   -1.4531 H   0  0  0  0  0  0  0  0  0  0  0  0
    4.3504   -0.9795   -1.6252 H   0  0  0  0  0  0  0  0  0  0  0  0
    2.3067    0.3599   -1.8013 H   0  0  0  0  0  0  0  0  0  0  0  0
   -2.0444   -0.6269   -5.4422 H   0  0  0  0  0  0  0  0  0  0  0  0
   -2.8460    1.8340   -5.0082 H   0  0  0  0  0  0  0  0  0  0  0  0
   -2.4041    3.8298   -3.0909 H   0  0  0  0  0  0  0  0  0  0  0  0
   -1.8888    5.4854   -1.4166 H   0  0  0  0  0  0  0  0  0  0  0  0
    1.6674    4.0271    2.5601 H   0  0  0  0  0  0  0  0  0  0  0  0
    0.9615    9.0224    4.3956 H   0  0  0  0  0  0  0  0  0  0  0  0
   -0.6160    9.0513    2.2942 H   0  0  0  0  0  0  0  0  0  0  0  0
   -1.3754    7.2149    0.2556 H   0  0  0  0  0  0  0  0  0  0  0  0
    1.1263    2.3304    0.8885 H   0  0  0  0  0  0  0  0  0  0  0  0
  1  2  4  0
  2  3  4  0
  3  4  4  0
  4  5  4  0
  5  6  4  0
  6  7  4  0
  7  8  4  0
  8  9  4  0
  6 10  4  0
 10 11  4  0
 11 12  4  0
 12 13  4  0
 12 14  4  0
 14 15  4  0
 15 16  4  0
 16 17  4  0
 17 18  4  0
 18 19  4  0
 19 20  4  0
 20 21  1  0
 21 22  4  0
 22 23  4  0
 23 24  4  0
 24 25  4  0
 25 26  4  0
 26 27  4  0
 27 28  4  0
 28 29  4  0
 29 30  4  0
 30 31  4  0
 31 32  4  0
 32 33  4  0
 33 34  4  0
 34 35  4  0
 35 36  4  0
 36 37  4  0
 37 38  4  0
 38 39  1  0
 39 40  4  0
 40 41  4  0
 41 42  4  0
 42 43  4  0
 43 44  4  0
 44 45  4  0
 45 46  4  0
 46 47  4  0
 47 48  4  0
 48 49  4  0
 49 50  4  0
 50 51  4  0
 51 52  4  0
 52 53  4  0
 53 54  4  0
 54 55  4  0
 55 56  4  0
 49 57  4  0
 57 58  4  0
  9  1  4  0
 20 11  4  0
 38 21  4  0
 58 39  4  0
  8  3  4  0
 19 15  4  0
 36 23  4  0
 44 40  4  0
 58 46  4  0
 13  5  4  0
 34 25  4  0
 56 48  4  0
 32 27  4  0
 55 51  4  0
  1 59  1  0
  2 60  1  0
  4 61  1  0
  7 62  1  0
 10 63  1  0
 13 64  1  0
 14 65  1  0
 16 66  1  0
 17 67  1  0
 22 68  1  0
 24 69  1  0
 26 70  1  0
 28 71  1  0
 29 72  1  0
 30 73  1  0
 31 74  1  0
 33 75  1  0
 35 76  1  0
 37 77  1  0
 42 78  1  0
 43 79  1  0
 45 80  1  0
 47 81  1  0
 50 82  1  0
 53 83  1  0
 54 84  1  0
 56 85  1  0
 57 86  1  0
M  END
