
     RDKit          3D

 86 99  0  0  0  0  0  0  0  0999 V2000
    8.0466   -3.4947    2.2365 C   0  0  0  0  0  0  0  0  0  0  0  0
    6.6753   -3.5667    2.1625 C   0  0  0  0  0  0  0  0  0  0  0  0
    6.1063   -2.5372    1.3397 C   0  0  0  0  0  0  0  0  0  0  0  0
    4.7580   -2.2629    1.0079 C   0  0  0  0  0  0  0  0  0  0  0  0
    4.4197   -1.1833    0.1714 C   0  0  0  0  0  0  0  0  0  0  0  0
    5.4304   -0.3656   -0.3491 C   0  0  0  0  0  0  0  0  0  0  0  0
    5.0738    0.6990   -1.1905 C   0  0  0  0  0  0  0  0  0  0  0  0
    3.7334    0.9735   -1.5148 C   0  0  0  0  0  0  0  0  0  0  0  0
    3.4308    2.0342   -2.3773 C   0  0  0  0  0  0  0  0  0  0  0  0
    2.0952    2.2883   -2.7339 C   0  0  0  0  0  0  0  0  0  0  0  0
    1.5447    3.5198   -3.8083 S   0  0  0  0  0  0  0  0  0  0  0  0
   -0.0794    3.0439   -3.6416 C   0  0  0  0  0  0  0  0  0  0  0  0
   -0.2120    1.9794   -2.7830 C   0  0  0  0  0  0  0  0  0  0  0  0
    1.0405    1.5342   -2.2198 C   0  0  0  0  0  0  0  0  0  0  0  0
    1.3420    0.4996   -1.2800 C   0  0  0  0  0  0  0  0  0  0  0  0
    0.2042   -0.2062   -0.6477 C   0  0  0  0  0  0  0  0  0  0  0  0
   -0.3737   -1.2984   -1.3236 C   0  0  0  0  0  0  0  0  0  0  0  0
   -1.4473   -2.0202   -0.7794 C   0  0  0  0  0  0  0  0  0  0  0  0
   -2.0118   -3.1140   -1.4563 C   0  0  0  0  0  0  0  0  0  0  0  0
   -3.0819   -3.8414   -0.9090 C   0  0  0  0  0  0  0  0  0  0  0  0
   -3.6430   -4.9394   -1.5830 C   0  0  0  0  0  0  0  0  0  0  0  0
   -4.7104   -5.6686   -1.0332 C   0  0  0  0  0  0  0  0  0  0  0  0
   -5.2709   -6.7677   -1.7050 C   0  0  0  0  0  0  0  0  0  0  0  0
   -6.3305   -7.4823   -1.1443 C   0  0  0  0  0  0  0  0  0  0  0  0
   -6.8428   -7.1080    0.0938 C   0  0  0  0  0  0  0  0  0  0  0  0
   -6.2968   -6.0183    0.7736 C   0  0  0  0  0  0  0  0  0  0  0  0
   -5.2305   -5.2889    0.2225 C   0  0  0  0  0  0  0  0  0  0  0  0
   -4.6699   -4.1902    0.8944 C   0  0  0  0  0  0  0  0  0  0  0  0
   -3.6016   -3.4625    0.3442 C   0  0  0  0  0  0  0  0  0  0  0  0
   -3.0389   -2.3663    1.0189 C   0  0  0  0  0  0  0  0  0  0  0  0
   -1.9667   -1.6424    0.4729 C   0  0  0  0  0  0  0  0  0  0  0  0
   -1.3993   -0.5533    1.1527 C   0  0  0  0  0  0  0  0  0  0  0  0
   -0.3165    0.1715    0.6188 C   0  0  0  0  0  0  0  0  0  0  0  0
    0.2429    1.2953    1.4048 C   0  0  0  0  0  0  0  0  0  0  0  0
    1.2133    0.9804    2.4074 C   0  0  0  0  0  0  0  0  0  0  0  0
    1.7048   -0.2854    2.8985 C   0  0  0  0  0  0  0  0  0  0  0  0
    2.6786   -0.1598    3.8597 C   0  0  0  0  0  0  0  0  0  0  0  0
    3.0084    1.4707    4.2124 S   0  0  0  0  0  0  0  0  0  0  0  0
    1.8365    2.0321    3.0787 C   0  0  0  0  0  0  0  0  0  0  0  0
    1.5129    3.3742    2.8160 C   0  0  0  0  0  0  0  0  0  0  0  0
    0.5132    3.6816    1.8854 C   0  0  0  0  0  0  0  0  0  0  0  0
    0.1701    5.0246    1.6515 C   0  0  0  0  0  0  0  0  0  0  0  0
   -0.8363    5.3855    0.7436 C   0  0  0  0  0  0  0  0  0  0  0  0
   -1.5264    4.3751    0.0626 C   0  0  0  0  0  0  0  0  0  0  0  0
   -2.5447    4.7183   -0.8458 C   0  0  0  0  0  0  0  0  0  0  0  0
   -2.8825    6.0708   -1.0909 C   0  0  0  0  0  0  0  0  0  0  0  0
   -3.8656    6.6449   -1.9652 C   0  0  0  0  0  0  0  0  0  0  0  0
   -3.8859    8.0191   -1.9176 C   0  0  0  0  0  0  0  0  0  0  0  0
   -2.7298    8.6359   -0.8268 S   0  0  0  0  0  0  0  0  0  0  0  0
   -2.1799    7.0586   -0.4009 C   0  0  0  0  0  0  0  0  0  0  0  0
   -1.1608    6.7336    0.5156 C   0  0  0  0  0  0  0  0  0  0  0  0
   -1.1807    3.0336    0.3003 C   0  0  0  0  0  0  0  0  0  0  0  0
   -0.1467    2.6540    1.1876 C   0  0  0  0  0  0  0  0  0  0  0  0
    2.7029    0.1832   -0.9754 C   0  0  0  0  0  0  0  0  0  0  0  0
    3.0815   -0.9038   -0.1532 C   0  0  0  0  0  0  0  0  0  0  0  0
    6.7746   -0.6234   -0.0305 C   0  0  0  0  0  0  0  0  0  0  0  0
    7.0947   -1.7067    0.8113 C   0  0  0  0  0  0  0  0  0  0  0  0
    8.6664   -2.1947    1.3241 S   0  0  0  0  0  0  0  0  0  0  0  0
    8.7157   -4.1445    2.7838 H   0  0  0  0  0  0  0  0  0  0  0  0
    6.0961   -4.3250    2.6745 H   0  0  0  0  0  0  0  0  0  0  0  0
    3.9776   -2.9023    1.4140 H   0  0  0  0  0  0  0  0  0  0  0  0
    5.8603    1.3284   -1.6053 H   0  0  0  0  0  0  0  0  0  0  0  0
    4.2216    2.6525   -2.7955 H   0  0  0  0  0  0  0  0  0  0  0  0
   -0.8608    3.5648   -4.1773 H   0  0  0  0  0  0  0  0  0  0  0  0
   -1.1716    1.5333   -2.5539 H   0  0  0  0  0  0  0  0  0  0  0  0
    0.0321   -1.5892   -2.2924 H   0  0  0  0  0  0  0  0  0  0  0  0
   -1.6088   -3.4070   -2.4244 H   0  0  0  0  0  0  0  0  0  0  0  0
   -3.2415   -5.2333   -2.5512 H   0  0  0  0  0  0  0  0  0  0  0  0
   -4.8851   -7.0770   -2.6739 H   0  0  0  0  0  0  0  0  0  0  0  0
   -6.7547   -8.3306   -1.6752 H   0  0  0  0  0  0  0  0  0  0  0  0
   -7.6678   -7.6633    0.5322 H   0  0  0  0  0  0  0  0  0  0  0  0
   -6.7114   -5.7425    1.7407 H   0  0  0  0  0  0  0  0  0  0  0  0
   -5.0715   -3.8976    1.8630 H   0  0  0  0  0  0  0  0  0  0  0  0
   -3.4405   -2.0744    1.9879 H   0  0  0  0  0  0  0  0  0  0  0  0
   -1.7992   -0.2591    2.1231 H   0  0  0  0  0  0  0  0  0  0  0  0
    1.3568   -1.2484    2.5462 H   0  0  0  0  0  0  0  0  0  0  0  0
    3.2120   -0.9499    4.3696 H   0  0  0  0  0  0  0  0  0  0  0  0
    2.0299    4.1636    3.3565 H   0  0  0  0  0  0  0  0  0  0  0  0
    0.6995    5.8098    2.1901 H   0  0  0  0  0  0  0  0  0  0  0  0
   -3.0849    3.9388   -1.3779 H   0  0  0  0  0  0  0  0  0  0  0  0
   -4.5260    6.0665   -2.5993 H   0  0  0  0  0  0  0  0  0  0  0  0
   -4.5255    8.6916   -2.4723 H   0  0  0  0  0  0  0  0  0  0  0  0
   -0.6329    7.5279    1.0368 H   0  0  0  0  0  0  0  0  0  0  0  0
   -1.7380    2.2600   -0.2245 H   0  0  0  0  0  0  0  0  0  0  0  0
    2.3097   -1.5586    0.2473 H   0  0  0  0  0  0  0  0  0  0  0  0
    7.5698    0.0033   -0.4260 H   0  0  0  0  0  0  0  0  0  0  0  0
  1  2  4  0
  2  3  4  0
  3  4  4  0
  4  5  4  0
  5  6  4  0
  6  7  4  0
  7  8  4  0
  8  9  4  0
  9 10  4  0
 10 11  4  0
 11 12  4  0
 12 13  4  0
 13 14  4  0
 14 15  4  0
 15 16  1  0
 16 17  4  0
 17 18  4  0
 18 19  4  0
 19 20  4  0
 20 21  4  0
 21 22  4  0
 22 23  4  0
 23 24  4  0
 24 25  4  0
 25 26  4  0
 26 27  4  0
 27 28  4  0
 28 29  4  0
 29 30  4  0
 30 31  4  0
 31 32  4  0
 32 33  4  0
 33 34  1  0
 34 35  4  0
 35 36  4  0
 36 37  4  0
 37 38  4  0
 38 39  4  0
 39 40  4  0
 40 41  4  0
 41 42  4  0
 42 43  4  0
 43 44  4  0
 44 45  4  0
 45 46  4  0
 46 47  4  0
 47 48  4  0
 48 49  4  0
 49 50  4  0
 50 51  4  0
 44 52  4  0
 52 53  4  0
 15 54  4  0
 54 55  4  0
  6 56  4  0
 56 57  4  0
 57 58  4  0
 58  1  4  0
 57  3  4  0
 55  5  4  0
 54  8  4  0
 14 10  4  0
 33 16  4  0
 53 34  4  0
 31 18  4  0
 39 35  4  0
 53 41  4  0
 29 20  4  0
 51 43  4  0
 27 22  4  0
 50 46  4  0
  1 59  1  0
  2 60  1  0
  4 61  1  0
  7 62  1  0
  9 63  1  0
 12 64  1  0
 13 65  1  0
 17 66  1  0
 19 67  1  0
 21 68  1  0
 23 69  1  0
 24 70  1  0
 25 71  1  0
 26 72  1  0
 28 73  1  0
 30 74  1  0
 32 75  1  0
 36 76  1  0
 37 77  1  0
 40 78  1  0
 42 79  1  0
 45 80  1  0
 47 81  1  0
 48 82  1  0
 51 83  1  0
 52 84  1  0
 55 85  1  0
 56 86  1  0
M  END
