
     RDKit          3D

 80 91  0  0  0  0  0  0  0  0999 V2000
   -3.2714    2.2104    1.8086 C   0  0  0  0  0  0  0  0  0  0  0  0
   -4.1846    1.2501    2.2327 C   0  0  0  0  0  0  0  0  0  0  0  0
   -3.8781   -0.1178    2.1695 C   0  0  0  0  0  0  0  0  0  0  0  0
   -4.8182   -1.0685    2.6040 C   0  0  0  0  0  0  0  0  0  0  0  0
   -4.5639   -2.4440    2.5612 C   0  0  0  0  0  0  0  0  0  0  0  0
   -5.5693   -3.3344    3.0192 C   0  0  0  0  0  0  0  0  0  0  0  0
   -5.1888   -4.6716    2.9227 C   0  0  0  0  0  0  0  0  0  0  0  0
   -5.9977   -5.7121    3.3064 C   0  0  0  0  0  0  0  0  0  0  0  0
   -5.2205   -7.2278    3.0539 S   0  0  0  0  0  0  0  0  0  0  0  0
   -3.8000   -6.4806    2.4303 C   0  0  0  0  0  0  0  0  0  0  0  0
   -3.9250   -5.1137    2.4186 C   0  0  0  0  0  0  0  0  0  0  0  0
   -2.9219   -4.2604    1.9628 C   0  0  0  0  0  0  0  0  0  0  0  0
   -3.2850   -2.8916    2.0505 C   0  0  0  0  0  0  0  0  0  0  0  0
   -2.3628   -1.9273    1.6223 C   0  0  0  0  0  0  0  0  0  0  0  0
   -2.6242   -0.5358    1.6663 C   0  0  0  0  0  0  0  0  0  0  0  0
   -1.6935    0.4522    1.2262 C   0  0  0  0  0  0  0  0  0  0  0  0
   -0.3675    0.0958    0.6787 C   0  0  0  0  0  0  0  0  0  0  0  0
    0.6913   -0.1487    1.5747 C   0  0  0  0  0  0  0  0  0  0  0  0
    1.9723   -0.5047    1.1255 C   0  0  0  0  0  0  0  0  0  0  0  0
    3.0234   -0.7452    2.0253 C   0  0  0  0  0  0  0  0  0  0  0  0
    4.3057   -1.1000    1.5748 C   0  0  0  0  0  0  0  0  0  0  0  0
    5.3587   -1.3370    2.4744 C   0  0  0  0  0  0  0  0  0  0  0  0
    6.6412   -1.6893    2.0232 C   0  0  0  0  0  0  0  0  0  0  0  0
    7.6953   -1.9243    2.9212 C   0  0  0  0  0  0  0  0  0  0  0  0
    8.9642   -2.2728    2.4565 C   0  0  0  0  0  0  0  0  0  0  0  0
    9.1954   -2.3912    1.0897 C   0  0  0  0  0  0  0  0  0  0  0  0
    8.1581   -2.1612    0.1848 C   0  0  0  0  0  0  0  0  0  0  0  0
    6.8759   -1.8092    0.6368 C   0  0  0  0  0  0  0  0  0  0  0  0
    5.8223   -1.5733   -0.2613 C   0  0  0  0  0  0  0  0  0  0  0  0
    4.5406   -1.2193    0.1909 C   0  0  0  0  0  0  0  0  0  0  0  0
    3.4882   -0.9798   -0.7081 C   0  0  0  0  0  0  0  0  0  0  0  0
    2.2074   -0.6230   -0.2567 C   0  0  0  0  0  0  0  0  0  0  0  0
    1.1578   -0.3759   -1.1550 C   0  0  0  0  0  0  0  0  0  0  0  0
   -0.1269   -0.0073   -0.7108 C   0  0  0  0  0  0  0  0  0  0  0  0
   -1.1738    0.2718   -1.7166 C   0  0  0  0  0  0  0  0  0  0  0  0
   -2.0781   -0.7544   -2.0444 C   0  0  0  0  0  0  0  0  0  0  0  0
   -3.0892   -0.5453   -2.9749 C   0  0  0  0  0  0  0  0  0  0  0  0
   -3.2094    0.6937   -3.5970 C   0  0  0  0  0  0  0  0  0  0  0  0
   -2.3233    1.7406   -3.3015 C   0  0  0  0  0  0  0  0  0  0  0  0
   -2.4667    2.9840   -3.9420 C   0  0  0  0  0  0  0  0  0  0  0  0
   -1.6110    4.0607   -3.6828 C   0  0  0  0  0  0  0  0  0  0  0  0
   -1.8275    5.2818   -4.3726 C   0  0  0  0  0  0  0  0  0  0  0  0
   -0.9063    6.2679   -4.0238 C   0  0  0  0  0  0  0  0  0  0  0  0
   -0.9168    7.5305   -4.5622 C   0  0  0  0  0  0  0  0  0  0  0  0
    0.3560    8.4922   -3.9132 S   0  0  0  0  0  0  0  0  0  0  0  0
    0.9162    7.2089   -2.9112 C   0  0  0  0  0  0  0  0  0  0  0  0
    0.1479    6.0832   -3.0745 C   0  0  0  0  0  0  0  0  0  0  0  0
    0.3811    4.8959   -2.3837 C   0  0  0  0  0  0  0  0  0  0  0  0
   -0.5443    3.8752   -2.7214 C   0  0  0  0  0  0  0  0  0  0  0  0
   -0.4202    2.6286   -2.0942 C   0  0  0  0  0  0  0  0  0  0  0  0
   -1.2893    1.5417   -2.3574 C   0  0  0  0  0  0  0  0  0  0  0  0
   -2.0353    1.8139    1.3125 C   0  0  0  0  0  0  0  0  0  0  0  0
   -3.5243    3.2660    1.8586 H   0  0  0  0  0  0  0  0  0  0  0  0
   -5.1482    1.5823    2.6137 H   0  0  0  0  0  0  0  0  0  0  0  0
   -5.7772   -0.7194    2.9857 H   0  0  0  0  0  0  0  0  0  0  0  0
   -6.5265   -3.0034    3.4008 H   0  0  0  0  0  0  0  0  0  0  0  0
   -6.9963   -5.6809    3.7196 H   0  0  0  0  0  0  0  0  0  0  0  0
   -2.9654   -7.0901    2.1123 H   0  0  0  0  0  0  0  0  0  0  0  0
   -1.9660   -4.5978    1.5826 H   0  0  0  0  0  0  0  0  0  0  0  0
   -1.4033   -2.2690    1.2355 H   0  0  0  0  0  0  0  0  0  0  0  0
    0.5025   -0.0603    2.6444 H   0  0  0  0  0  0  0  0  0  0  0  0
    2.8409   -0.6527    3.0947 H   0  0  0  0  0  0  0  0  0  0  0  0
    5.1779   -1.2447    3.5438 H   0  0  0  0  0  0  0  0  0  0  0  0
    7.5354   -1.8370    3.9936 H   0  0  0  0  0  0  0  0  0  0  0  0
    9.7709   -2.4516    3.1627 H   0  0  0  0  0  0  0  0  0  0  0  0
   10.1828   -2.6627    0.7260 H   0  0  0  0  0  0  0  0  0  0  0  0
    8.3592   -2.2591   -0.8797 H   0  0  0  0  0  0  0  0  0  0  0  0
    6.0040   -1.6654   -1.3306 H   0  0  0  0  0  0  0  0  0  0  0  0
    3.6697   -1.0700   -1.7778 H   0  0  0  0  0  0  0  0  0  0  0  0
    1.3369   -0.4591   -2.2268 H   0  0  0  0  0  0  0  0  0  0  0  0
   -1.9993   -1.7260   -1.5606 H   0  0  0  0  0  0  0  0  0  0  0  0
   -3.7861   -1.3451   -3.2104 H   0  0  0  0  0  0  0  0  0  0  0  0
   -4.0104    0.8369   -4.3195 H   0  0  0  0  0  0  0  0  0  0  0  0
   -3.2733    3.1110   -4.6634 H   0  0  0  0  0  0  0  0  0  0  0  0
   -2.6245    5.4245   -5.0907 H   0  0  0  0  0  0  0  0  0  0  0  0
   -1.5898    7.9523   -5.2958 H   0  0  0  0  0  0  0  0  0  0  0  0
    1.7714    7.3603   -2.2673 H   0  0  0  0  0  0  0  0  0  0  0  0
    1.1804    4.7593   -1.6663 H   0  0  0  0  0  0  0  0  0  0  0  0
    0.3824    2.4958   -1.3693 H   0  0  0  0  0  0  0  0  0  0  0  0
   -1.3323    2.5745    0.9789 H   0  0  0  0  0  0  0  0  0  0  0  0
  1  2  4  0
  2  3  4  0
  3  4  4  0
  4  5  4  0
  5  6  4  0
  6  7  4  0
  7  8  4  0
  8  9  4  0
  9 10  4  0
 10 11  4  0
 11 12  4  0
 12 13  4  0
 13 14  4  0
 14 15  4  0
 15 16  4  0
 16 17  1  0
 17 18  4  0
 18 19  4  0
 19 20  4  0
 20 21  4  0
 21 22  4  0
 22 23  4  0
 23 24  4  0
 24 25  4  0
 25 26  4  0
 26 27  4  0
 27 28  4  0
 28 29  4  0
 29 30  4  0
 30 31  4  0
 31 32  4  0
 32 33  4  0
 33 34  4  0
 34 35  1  0
 35 36  4  0
 36 37  4  0
 37 38  4  0
 38 39  4  0
 39 40  4  0
 40 41  4  0
 41 42  4  0
 42 43  4  0
 43 44  4  0
 44 45  4  0
 45 46  4  0
 46 47  4  0
 47 48  4  0
 48 49  4  0
 49 50  4  0
 50 51  4  0
 16 52  4  0
 52  1  4  0
 15  3  4  0
 34 17  4  0
 51 35  4  0
 13  5  4  0
 32 19  4  0
 51 39  4  0
 11  7  4  0
 30 21  4  0
 49 41  4  0
 28 23  4  0
 47 43  4  0
  1 53  1  0
  2 54  1  0
  4 55  1  0
  6 56  1  0
  8 57  1  0
 10 58  1  0
 12 59  1  0
 14 60  1  0
 18 61  1  0
 20 62  1  0
 22 63  1  0
 24 64  1  0
 25 65  1  0
 26 66  1  0
 27 67  1  0
 29 68  1  0
 31 69  1  0
 33 70  1  0
 36 71  1  0
 37 72  1  0
 38 73  1  0
 40 74  1  0
 42 75  1  0
 44 76  1  0
 46 77  1  0
 48 78  1  0
 50 79  1  0
 52 80  1  0
M  END
