
     RDKit          3D

 50 55  0  0  0  0  0  0  0  0999 V2000
   -5.4239    3.0402    0.2912 C   0  0  0  0  0  0  0  0  0  0  0  0
   -4.5430    3.2365   -0.7697 C   0  0  0  0  0  0  0  0  0  0  0  0
   -3.3757    2.4743   -0.8586 C   0  0  0  0  0  0  0  0  0  0  0  0
   -3.0731    1.5023    0.1096 C   0  0  0  0  0  0  0  0  0  0  0  0
   -1.8352    0.7059    0.0139 C   0  0  0  0  0  0  0  0  0  0  0  0
   -0.6001    1.3665    0.1822 C   0  0  0  0  0  0  0  0  0  0  0  0
    0.6261    0.6856    0.1171 C   0  0  0  0  0  0  0  0  0  0  0  0
    1.8492    1.3561    0.2866 C   0  0  0  0  0  0  0  0  0  0  0  0
    3.0753    0.6735    0.2183 C   0  0  0  0  0  0  0  0  0  0  0  0
    4.2982    1.3449    0.3864 C   0  0  0  0  0  0  0  0  0  0  0  0
    5.5240    0.6627    0.3168 C   0  0  0  0  0  0  0  0  0  0  0  0
    6.7470    1.3332    0.4845 C   0  0  0  0  0  0  0  0  0  0  0  0
    7.9567    0.6409    0.4121 C   0  0  0  0  0  0  0  0  0  0  0  0
    7.9595   -0.7294    0.1715 C   0  0  0  0  0  0  0  0  0  0  0  0
    6.7526   -1.4097    0.0029 C   0  0  0  0  0  0  0  0  0  0  0  0
    5.5268   -0.7272    0.0730 C   0  0  0  0  0  0  0  0  0  0  0  0
    4.3036   -1.3975   -0.0942 C   0  0  0  0  0  0  0  0  0  0  0  0
    3.0777   -0.7139   -0.0245 C   0  0  0  0  0  0  0  0  0  0  0  0
    1.8536   -1.3833   -0.1920 C   0  0  0  0  0  0  0  0  0  0  0  0
    0.6280   -0.6990   -0.1232 C   0  0  0  0  0  0  0  0  0  0  0  0
   -0.5970   -1.3650   -0.2907 C   0  0  0  0  0  0  0  0  0  0  0  0
   -1.8336   -0.6886   -0.2280 C   0  0  0  0  0  0  0  0  0  0  0  0
   -3.0689   -1.4681   -0.4335 C   0  0  0  0  0  0  0  0  0  0  0  0
   -3.8626   -1.2793   -1.5757 C   0  0  0  0  0  0  0  0  0  0  0  0
   -5.0288   -2.0234   -1.7694 C   0  0  0  0  0  0  0  0  0  0  0  0
   -5.4162   -2.9717   -0.8254 C   0  0  0  0  0  0  0  0  0  0  0  0
   -4.6387   -3.1772    0.3119 C   0  0  0  0  0  0  0  0  0  0  0  0
   -3.4729   -2.4320    0.5052 C   0  0  0  0  0  0  0  0  0  0  0  0
   -3.9704    1.3229    1.1740 C   0  0  0  0  0  0  0  0  0  0  0  0
   -5.1384    2.0841    1.2632 C   0  0  0  0  0  0  0  0  0  0  0  0
   -6.3336    3.6306    0.3602 H   0  0  0  0  0  0  0  0  0  0  0  0
   -4.7644    3.9806   -1.5301 H   0  0  0  0  0  0  0  0  0  0  0  0
   -2.7010    2.6354   -1.6969 H   0  0  0  0  0  0  0  0  0  0  0  0
   -0.6032    2.4386    0.3782 H   0  0  0  0  0  0  0  0  0  0  0  0
    1.8464    2.4285    0.4742 H   0  0  0  0  0  0  0  0  0  0  0  0
    4.2954    2.4170    0.5744 H   0  0  0  0  0  0  0  0  0  0  0  0
    6.7660    2.4042    0.6736 H   0  0  0  0  0  0  0  0  0  0  0  0
    8.8954    1.1727    0.5438 H   0  0  0  0  0  0  0  0  0  0  0  0
    8.9004   -1.2705    0.1147 H   0  0  0  0  0  0  0  0  0  0  0  0
    6.7756   -2.4810   -0.1842 H   0  0  0  0  0  0  0  0  0  0  0  0
    4.3063   -2.4696   -0.2823 H   0  0  0  0  0  0  0  0  0  0  0  0
    1.8543   -2.4556   -0.3798 H   0  0  0  0  0  0  0  0  0  0  0  0
   -0.5968   -2.4370   -0.4872 H   0  0  0  0  0  0  0  0  0  0  0  0
   -3.5748   -0.5430   -2.3231 H   0  0  0  0  0  0  0  0  0  0  0  0
   -5.6340   -1.8587   -2.6567 H   0  0  0  0  0  0  0  0  0  0  0  0
   -6.3247   -3.5488   -0.9757 H   0  0  0  0  0  0  0  0  0  0  0  0
   -4.9396   -3.9152    1.0506 H   0  0  0  0  0  0  0  0  0  0  0  0
   -2.8802   -2.6002    1.4020 H   0  0  0  0  0  0  0  0  0  0  0  0
   -3.7629    0.5808    1.9420 H   0  0  0  0  0  0  0  0  0  0  0  0
   -5.8245    1.9268    2.0910 H   0  0  0  0  0  0  0  0  0  0  0  0
  1  2  4  0
  2  3  4  0
  3  4  4  0
  4  5  1  0
  5  6  4  0
  6  7  4  0
  7  8  4  0
  8  9  4  0
  9 10  4  0
 10 11  4  0
 11 12  4  0
 12 13  4  0
 13 14  4  0
 14 15  4  0
 15 16  4  0
 16 17  4  0
 17 18  4  0
 18 19  4  0
 19 20  4  0
 20 21  4  0
 21 22  4  0
 22 23  1  0
 23 24  4  0
 24 25  4  0
 25 26  4  0
 26 27  4  0
 27 28  4  0
  4 29  4  0
 29 30  4  0
 30  1  4  0
 22  5  4  0
 28 23  4  0
 20  7  4  0
 18  9  4  0
 16 11  4  0
  1 31  1  0
  2 32  1  0
  3 33  1  0
  6 34  1  0
  8 35  1  0
 10 36  1  0
 12 37  1  0
 13 38  1  0
 14 39  1  0
 15 40  1  0
 17 41  1  0
 19 42  1  0
 21 43  1  0
 24 44  1  0
 25 45  1  0
 26 46  1  0
 27 47  1  0
 28 48  1  0
 29 49  1  0
 30 50  1  0
M  END
