
     RDKit          3D

 78 89  0  0  0  0  0  0  0  0999 V2000
   -4.6770   -0.3866    4.1271 C   0  0  0  0  0  0  0  0  0  0  0  0
   -3.4093   -0.0920    3.6299 C   0  0  0  0  0  0  0  0  0  0  0  0
   -2.9314   -0.7233    2.4718 C   0  0  0  0  0  0  0  0  0  0  0  0
   -3.7454   -1.6586    1.7993 C   0  0  0  0  0  0  0  0  0  0  0  0
   -5.0328   -1.9561    2.3076 C   0  0  0  0  0  0  0  0  0  0  0  0
   -5.4831   -1.3145    3.4708 C   0  0  0  0  0  0  0  0  0  0  0  0
   -5.8369   -2.8849    1.6379 C   0  0  0  0  0  0  0  0  0  0  0  0
   -5.3825   -3.5111    0.4768 C   0  0  0  0  0  0  0  0  0  0  0  0
   -4.1136   -3.2253   -0.0429 C   0  0  0  0  0  0  0  0  0  0  0  0
   -3.6668   -3.8512   -1.2126 C   0  0  0  0  0  0  0  0  0  0  0  0
   -2.4103   -3.5610   -1.7306 C   0  0  0  0  0  0  0  0  0  0  0  0
   -1.5850   -2.6443   -1.0808 C   0  0  0  0  0  0  0  0  0  0  0  0
   -1.9881   -1.9902    0.1064 C   0  0  0  0  0  0  0  0  0  0  0  0
   -3.2765   -2.2918    0.6198 C   0  0  0  0  0  0  0  0  0  0  0  0
   -1.1731   -1.0483    0.7954 C   0  0  0  0  0  0  0  0  0  0  0  0
    0.1774   -0.6741    0.3214 C   0  0  0  0  0  0  0  0  0  0  0  0
    1.2554   -1.5419    0.5844 C   0  0  0  0  0  0  0  0  0  0  0  0
    2.5595   -1.2553    0.1502 C   0  0  0  0  0  0  0  0  0  0  0  0
    3.6287   -2.1282    0.4120 C   0  0  0  0  0  0  0  0  0  0  0  0
    4.9328   -1.8412   -0.0253 C   0  0  0  0  0  0  0  0  0  0  0  0
    6.0025   -2.7140    0.2367 C   0  0  0  0  0  0  0  0  0  0  0  0
    7.3062   -2.4267   -0.2003 C   0  0  0  0  0  0  0  0  0  0  0  0
    8.3763   -3.2985    0.0610 C   0  0  0  0  0  0  0  0  0  0  0  0
    9.6660   -2.9983   -0.3800 C   0  0  0  0  0  0  0  0  0  0  0  0
    9.9025   -1.8237   -1.0873 C   0  0  0  0  0  0  0  0  0  0  0  0
    8.8496   -0.9475   -1.3549 C   0  0  0  0  0  0  0  0  0  0  0  0
    7.5461   -1.2356   -0.9179 C   0  0  0  0  0  0  0  0  0  0  0  0
    6.4761   -0.3639   -1.1795 C   0  0  0  0  0  0  0  0  0  0  0  0
    5.1726   -0.6525   -0.7420 C   0  0  0  0  0  0  0  0  0  0  0  0
    4.1027    0.2196   -1.0036 C   0  0  0  0  0  0  0  0  0  0  0  0
    2.7995   -0.0678   -0.5654 C   0  0  0  0  0  0  0  0  0  0  0  0
    1.7311    0.8057   -0.8230 C   0  0  0  0  0  0  0  0  0  0  0  0
    0.4225    0.5278   -0.3825 C   0  0  0  0  0  0  0  0  0  0  0  0
   -0.6506    1.5035   -0.6725 C   0  0  0  0  0  0  0  0  0  0  0  0
   -1.5100    1.2446   -1.7562 C   0  0  0  0  0  0  0  0  0  0  0  0
   -2.5609    2.1072   -2.0835 C   0  0  0  0  0  0  0  0  0  0  0  0
   -2.7601    3.2733   -1.3149 C   0  0  0  0  0  0  0  0  0  0  0  0
   -3.8215    4.1517   -1.6411 C   0  0  0  0  0  0  0  0  0  0  0  0
   -4.6626    3.8501   -2.7222 C   0  0  0  0  0  0  0  0  0  0  0  0
   -4.4643    2.6938   -3.4742 C   0  0  0  0  0  0  0  0  0  0  0  0
   -3.4194    1.8284   -3.1572 C   0  0  0  0  0  0  0  0  0  0  0  0
   -4.0157    5.3066   -0.8752 C   0  0  0  0  0  0  0  0  0  0  0  0
   -3.1783    5.5934    0.2032 C   0  0  0  0  0  0  0  0  0  0  0  0
   -2.1259    4.7336    0.5425 C   0  0  0  0  0  0  0  0  0  0  0  0
   -1.2939    5.0226    1.6305 C   0  0  0  0  0  0  0  0  0  0  0  0
   -0.2521    4.1670    1.9677 C   0  0  0  0  0  0  0  0  0  0  0  0
   -0.0307    3.0129    1.2178 C   0  0  0  0  0  0  0  0  0  0  0  0
   -0.8425    2.6773    0.1096 C   0  0  0  0  0  0  0  0  0  0  0  0
   -1.9041    3.5590   -0.2208 C   0  0  0  0  0  0  0  0  0  0  0  0
   -1.6589   -0.4384    1.9669 C   0  0  0  0  0  0  0  0  0  0  0  0
   -5.0383    0.1094    5.0241 H   0  0  0  0  0  0  0  0  0  0  0  0
   -2.7963    0.6429    4.1481 H   0  0  0  0  0  0  0  0  0  0  0  0
   -6.4708   -1.5298    3.8721 H   0  0  0  0  0  0  0  0  0  0  0  0
   -6.8289   -3.1278    2.0121 H   0  0  0  0  0  0  0  0  0  0  0  0
   -6.0347   -4.2246   -0.0221 H   0  0  0  0  0  0  0  0  0  0  0  0
   -4.2986   -4.5672   -1.7330 H   0  0  0  0  0  0  0  0  0  0  0  0
   -2.0708   -4.0463   -2.6418 H   0  0  0  0  0  0  0  0  0  0  0  0
   -0.6106   -2.4409   -1.5206 H   0  0  0  0  0  0  0  0  0  0  0  0
    1.0629   -2.4614    1.1367 H   0  0  0  0  0  0  0  0  0  0  0  0
    3.4426   -3.0470    0.9657 H   0  0  0  0  0  0  0  0  0  0  0  0
    5.8179   -3.6327    0.7906 H   0  0  0  0  0  0  0  0  0  0  0  0
    8.2125   -4.2219    0.6122 H   0  0  0  0  0  0  0  0  0  0  0  0
   10.4846   -3.6821   -0.1708 H   0  0  0  0  0  0  0  0  0  0  0  0
   10.9060   -1.5880   -1.4317 H   0  0  0  0  0  0  0  0  0  0  0  0
    9.0551   -0.0344   -1.9093 H   0  0  0  0  0  0  0  0  0  0  0  0
    6.6619    0.5548   -1.7331 H   0  0  0  0  0  0  0  0  0  0  0  0
    4.2867    1.1387   -1.5577 H   0  0  0  0  0  0  0  0  0  0  0  0
    1.9123    1.7292   -1.3725 H   0  0  0  0  0  0  0  0  0  0  0  0
   -1.3569    0.3415   -2.3455 H   0  0  0  0  0  0  0  0  0  0  0  0
   -5.4851    4.5120   -2.9828 H   0  0  0  0  0  0  0  0  0  0  0  0
   -5.1261    2.4636   -4.3047 H   0  0  0  0  0  0  0  0  0  0  0  0
   -3.2826    0.9280   -3.7521 H   0  0  0  0  0  0  0  0  0  0  0  0
   -4.8253    5.9942   -1.1089 H   0  0  0  0  0  0  0  0  0  0  0  0
   -3.3595    6.4977    0.7801 H   0  0  0  0  0  0  0  0  0  0  0  0
   -1.4531    5.9186    2.2263 H   0  0  0  0  0  0  0  0  0  0  0  0
    0.3890    4.3950    2.8151 H   0  0  0  0  0  0  0  0  0  0  0  0
    0.7901    2.3643    1.5176 H   0  0  0  0  0  0  0  0  0  0  0  0
   -1.0285    0.2828    2.4851 H   0  0  0  0  0  0  0  0  0  0  0  0
  1  2  4  0
  2  3  4  0
  3  4  4  0
  4  5  4  0
  5  6  4  0
  5  7  4  0
  7  8  4  0
  8  9  4  0
  9 10  4  0
 10 11  4  0
 11 12  4  0
 12 13  4  0
 13 14  4  0
 13 15  4  0
 15 16  1  0
 16 17  4  0
 17 18  4  0
 18 19  4  0
 19 20  4  0
 20 21  4  0
 21 22  4  0
 22 23  4  0
 23 24  4  0
 24 25  4  0
 25 26  4  0
 26 27  4  0
 27 28  4  0
 28 29  4  0
 29 30  4  0
 30 31  4  0
 31 32  4  0
 32 33  4  0
 33 34  1  0
 34 35  4  0
 35 36  4  0
 36 37  4  0
 37 38  4  0
 38 39  4  0
 39 40  4  0
 40 41  4  0
 38 42  4  0
 42 43  4  0
 43 44  4  0
 44 45  4  0
 45 46  4  0
 46 47  4  0
 47 48  4  0
 48 49  4  0
 15 50  4  0
  6  1  4  0
 14  9  4  0
 33 16  4  0
 48 34  4  0
 50  3  4  0
 14  4  4  0
 31 18  4  0
 41 36  4  0
 49 44  4  0
 29 20  4  0
 49 37  4  0
 27 22  4  0
  1 51  1  0
  2 52  1  0
  6 53  1  0
  7 54  1  0
  8 55  1  0
 10 56  1  0
 11 57  1  0
 12 58  1  0
 17 59  1  0
 19 60  1  0
 21 61  1  0
 23 62  1  0
 24 63  1  0
 25 64  1  0
 26 65  1  0
 28 66  1  0
 30 67  1  0
 32 68  1  0
 35 69  1  0
 39 70  1  0
 40 71  1  0
 41 72  1  0
 42 73  1  0
 43 74  1  0
 45 75  1  0
 46 76  1  0
 47 77  1  0
 50 78  1  0
M  END
