
     RDKit          3D

 78 89  0  0  0  0  0  0  0  0999 V2000
   -4.0730    7.1314   -0.7151 C   0  0  0  0  0  0  0  0  0  0  0  0
   -3.2122    6.8024   -1.7617 C   0  0  0  0  0  0  0  0  0  0  0  0
   -2.3627    5.6904   -1.6650 C   0  0  0  0  0  0  0  0  0  0  0  0
   -2.3848    4.9017   -0.4914 C   0  0  0  0  0  0  0  0  0  0  0  0
   -3.2587    5.2357    0.5689 C   0  0  0  0  0  0  0  0  0  0  0  0
   -4.0967    6.3534    0.4420 C   0  0  0  0  0  0  0  0  0  0  0  0
   -3.2690    4.4411    1.7230 C   0  0  0  0  0  0  0  0  0  0  0  0
   -2.4257    3.3326    1.8343 C   0  0  0  0  0  0  0  0  0  0  0  0
   -1.5500    2.9900    0.7951 C   0  0  0  0  0  0  0  0  0  0  0  0
   -0.6933    1.8822    0.8954 C   0  0  0  0  0  0  0  0  0  0  0  0
    0.1722    1.5271   -0.1507 C   0  0  0  0  0  0  0  0  0  0  0  0
    1.0661    0.3564   -0.0420 C   0  0  0  0  0  0  0  0  0  0  0  0
    2.4602    0.5744   -0.0602 C   0  0  0  0  0  0  0  0  0  0  0  0
    3.3832   -0.4791    0.0390 C   0  0  0  0  0  0  0  0  0  0  0  0
    4.7687   -0.2463    0.0221 C   0  0  0  0  0  0  0  0  0  0  0  0
    5.6904   -1.3022    0.1189 C   0  0  0  0  0  0  0  0  0  0  0  0
    7.0759   -1.0694    0.1022 C   0  0  0  0  0  0  0  0  0  0  0  0
    7.9973   -2.1253    0.1978 C   0  0  0  0  0  0  0  0  0  0  0  0
    9.3827   -1.8933    0.1813 C   0  0  0  0  0  0  0  0  0  0  0  0
   10.2856   -2.9534    0.2768 C   0  0  0  0  0  0  0  0  0  0  0  0
    9.8155   -4.2580    0.3900 C   0  0  0  0  0  0  0  0  0  0  0  0
    8.4419   -4.5047    0.4080 C   0  0  0  0  0  0  0  0  0  0  0  0
    7.5206   -3.4484    0.3129 C   0  0  0  0  0  0  0  0  0  0  0  0
    6.1352   -3.6799    0.3299 C   0  0  0  0  0  0  0  0  0  0  0  0
    5.2143   -2.6228    0.2347 C   0  0  0  0  0  0  0  0  0  0  0  0
    3.8285   -2.8536    0.2531 C   0  0  0  0  0  0  0  0  0  0  0  0
    2.9082   -1.7961    0.1584 C   0  0  0  0  0  0  0  0  0  0  0  0
    1.5229   -2.0233    0.1808 C   0  0  0  0  0  0  0  0  0  0  0  0
    0.5881   -0.9706    0.0853 C   0  0  0  0  0  0  0  0  0  0  0  0
   -0.8486   -1.3058    0.1203 C   0  0  0  0  0  0  0  0  0  0  0  0
   -1.6711   -1.0990   -0.9975 C   0  0  0  0  0  0  0  0  0  0  0  0
   -3.0413   -1.4036   -0.9646 C   0  0  0  0  0  0  0  0  0  0  0  0
   -3.6040   -1.9374    0.2157 C   0  0  0  0  0  0  0  0  0  0  0  0
   -2.7894   -2.1593    1.3475 C   0  0  0  0  0  0  0  0  0  0  0  0
   -1.4237   -1.8429    1.2837 C   0  0  0  0  0  0  0  0  0  0  0  0
   -3.3630   -2.6878    2.5119 C   0  0  0  0  0  0  0  0  0  0  0  0
   -4.7249   -2.9952    2.5618 C   0  0  0  0  0  0  0  0  0  0  0  0
   -5.5482   -2.7814    1.4484 C   0  0  0  0  0  0  0  0  0  0  0  0
   -6.9173   -3.0838    1.4821 C   0  0  0  0  0  0  0  0  0  0  0  0
   -7.7209   -2.8639    0.3639 C   0  0  0  0  0  0  0  0  0  0  0  0
   -7.1671   -2.3380   -0.8029 C   0  0  0  0  0  0  0  0  0  0  0  0
   -5.8015   -2.0249   -0.8676 C   0  0  0  0  0  0  0  0  0  0  0  0
   -4.9855   -2.2485    0.2654 C   0  0  0  0  0  0  0  0  0  0  0  0
   -5.2274   -1.4938   -2.0301 C   0  0  0  0  0  0  0  0  0  0  0  0
   -3.8652   -1.1867   -2.0775 C   0  0  0  0  0  0  0  0  0  0  0  0
    0.1764    2.3202   -1.3102 C   0  0  0  0  0  0  0  0  0  0  0  0
   -0.6609    3.4399   -1.4375 C   0  0  0  0  0  0  0  0  0  0  0  0
   -1.5311    3.7763   -0.3778 C   0  0  0  0  0  0  0  0  0  0  0  0
   -0.6529    4.2310   -2.5945 C   0  0  0  0  0  0  0  0  0  0  0  0
   -1.4919    5.3428   -2.7064 C   0  0  0  0  0  0  0  0  0  0  0  0
   -4.7271    7.9952   -0.8016 H   0  0  0  0  0  0  0  0  0  0  0  0
   -3.2100    7.4218   -2.6558 H   0  0  0  0  0  0  0  0  0  0  0  0
   -4.7762    6.6265    1.2462 H   0  0  0  0  0  0  0  0  0  0  0  0
   -3.9372    4.6764    2.5483 H   0  0  0  0  0  0  0  0  0  0  0  0
   -2.4634    2.7331    2.7413 H   0  0  0  0  0  0  0  0  0  0  0  0
   -0.7035    1.2798    1.8024 H   0  0  0  0  0  0  0  0  0  0  0  0
    2.8298    1.5965   -0.1437 H   0  0  0  0  0  0  0  0  0  0  0  0
    5.1357    0.7748   -0.0678 H   0  0  0  0  0  0  0  0  0  0  0  0
    7.4445   -0.0490    0.0134 H   0  0  0  0  0  0  0  0  0  0  0  0
    9.7702   -0.8807    0.0936 H   0  0  0  0  0  0  0  0  0  0  0  0
   11.3548   -2.7591    0.2627 H   0  0  0  0  0  0  0  0  0  0  0  0
   10.5168   -5.0850    0.4644 H   0  0  0  0  0  0  0  0  0  0  0  0
    8.0949   -5.5317    0.4969 H   0  0  0  0  0  0  0  0  0  0  0  0
    5.7681   -4.7008    0.4188 H   0  0  0  0  0  0  0  0  0  0  0  0
    3.4593   -3.8739    0.3433 H   0  0  0  0  0  0  0  0  0  0  0  0
    1.1540   -3.0454    0.2664 H   0  0  0  0  0  0  0  0  0  0  0  0
   -1.2362   -0.6844   -1.9056 H   0  0  0  0  0  0  0  0  0  0  0  0
   -0.7950   -2.0030    2.1584 H   0  0  0  0  0  0  0  0  0  0  0  0
   -2.7526   -2.8651    3.3947 H   0  0  0  0  0  0  0  0  0  0  0  0
   -5.1377   -3.4038    3.4815 H   0  0  0  0  0  0  0  0  0  0  0  0
   -7.3692   -3.4940    2.3824 H   0  0  0  0  0  0  0  0  0  0  0  0
   -8.7807   -3.1021    0.4019 H   0  0  0  0  0  0  0  0  0  0  0  0
   -7.8114   -2.1731   -1.6636 H   0  0  0  0  0  0  0  0  0  0  0  0
   -5.8376   -1.3112   -2.9119 H   0  0  0  0  0  0  0  0  0  0  0  0
   -3.4527   -0.7700   -2.9938 H   0  0  0  0  0  0  0  0  0  0  0  0
    0.8393    2.0519   -2.1313 H   0  0  0  0  0  0  0  0  0  0  0  0
    0.0101    3.9892   -3.4224 H   0  0  0  0  0  0  0  0  0  0  0  0
   -1.4586    5.9365   -3.6173 H   0  0  0  0  0  0  0  0  0  0  0  0
  1  2  4  0
  2  3  4  0
  3  4  4  0
  4  5  4  0
  5  6  4  0
  5  7  4  0
  7  8  4  0
  8  9  4  0
  9 10  4  0
 10 11  4  0
 11 12  1  0
 12 13  4  0
 13 14  4  0
 14 15  4  0
 15 16  4  0
 16 17  4  0
 17 18  4  0
 18 19  4  0
 19 20  4  0
 20 21  4  0
 21 22  4  0
 22 23  4  0
 23 24  4  0
 24 25  4  0
 25 26  4  0
 26 27  4  0
 27 28  4  0
 28 29  4  0
 29 30  1  0
 30 31  4  0
 31 32  4  0
 32 33  4  0
 33 34  4  0
 34 35  4  0
 34 36  4  0
 36 37  4  0
 37 38  4  0
 38 39  4  0
 39 40  4  0
 40 41  4  0
 41 42  4  0
 42 43  4  0
 42 44  4  0
 44 45  4  0
 11 46  4  0
 46 47  4  0
 47 48  4  0
 47 49  4  0
 49 50  4  0
  6  1  4  0
 48  9  4  0
 50  3  4  0
 48  4  4  0
 29 12  4  0
 35 30  4  0
 43 38  4  0
 27 14  4  0
 45 32  4  0
 25 16  4  0
 43 33  4  0
 23 18  4  0
  1 51  1  0
  2 52  1  0
  6 53  1  0
  7 54  1  0
  8 55  1  0
 10 56  1  0
 13 57  1  0
 15 58  1  0
 17 59  1  0
 19 60  1  0
 20 61  1  0
 21 62  1  0
 22 63  1  0
 24 64  1  0
 26 65  1  0
 28 66  1  0
 31 67  1  0
 35 68  1  0
 36 69  1  0
 37 70  1  0
 39 71  1  0
 40 72  1  0
 41 73  1  0
 44 74  1  0
 45 75  1  0
 46 76  1  0
 49 77  1  0
 50 78  1  0
M  END
