
     RDKit          3D

 78 89  0  0  0  0  0  0  0  0999 V2000
   -4.1363    5.7302   -1.0584 C   0  0  0  0  0  0  0  0  0  0  0  0
   -3.1775    4.8979   -1.6323 C   0  0  0  0  0  0  0  0  0  0  0  0
   -2.4525    3.9930   -0.8429 C   0  0  0  0  0  0  0  0  0  0  0  0
   -2.6972    3.9241    0.5470 C   0  0  0  0  0  0  0  0  0  0  0  0
   -3.6716    4.7727    1.1253 C   0  0  0  0  0  0  0  0  0  0  0  0
   -4.3815    5.6682    0.3119 C   0  0  0  0  0  0  0  0  0  0  0  0
   -3.9110    4.7032    2.5020 C   0  0  0  0  0  0  0  0  0  0  0  0
   -3.1991    3.8093    3.3026 C   0  0  0  0  0  0  0  0  0  0  0  0
   -2.2320    2.9617    2.7469 C   0  0  0  0  0  0  0  0  0  0  0  0
   -1.5208    2.0698    3.5534 C   0  0  0  0  0  0  0  0  0  0  0  0
   -0.5630    1.2254    2.9978 C   0  0  0  0  0  0  0  0  0  0  0  0
   -0.2933    1.2392    1.6189 C   0  0  0  0  0  0  0  0  0  0  0  0
    0.7273    0.3043    1.0972 C   0  0  0  0  0  0  0  0  0  0  0  0
    2.0323    0.7869    0.8734 C   0  0  0  0  0  0  0  0  0  0  0  0
    3.0518   -0.0383    0.3734 C   0  0  0  0  0  0  0  0  0  0  0  0
    4.3482    0.4529    0.1474 C   0  0  0  0  0  0  0  0  0  0  0  0
    5.3675   -0.3736   -0.3543 C   0  0  0  0  0  0  0  0  0  0  0  0
    6.6644    0.1177   -0.5801 C   0  0  0  0  0  0  0  0  0  0  0  0
    7.6833   -0.7087   -1.0816 C   0  0  0  0  0  0  0  0  0  0  0  0
    8.9803   -0.2188   -1.3074 C   0  0  0  0  0  0  0  0  0  0  0  0
    9.9819   -1.0531   -1.8061 C   0  0  0  0  0  0  0  0  0  0  0  0
    9.7000   -2.3866   -2.0855 C   0  0  0  0  0  0  0  0  0  0  0  0
    8.4161   -2.8881   -1.8665 C   0  0  0  0  0  0  0  0  0  0  0  0
    7.3976   -2.0613   -1.3648 C   0  0  0  0  0  0  0  0  0  0  0  0
    6.1008   -2.5513   -1.1387 C   0  0  0  0  0  0  0  0  0  0  0  0
    5.0825   -1.7239   -0.6368 C   0  0  0  0  0  0  0  0  0  0  0  0
    3.7856   -2.2141   -0.4102 C   0  0  0  0  0  0  0  0  0  0  0  0
    2.7674   -1.3870    0.0919 C   0  0  0  0  0  0  0  0  0  0  0  0
    1.4719   -1.8769    0.3210 C   0  0  0  0  0  0  0  0  0  0  0  0
    0.4435   -1.0542    0.8209 C   0  0  0  0  0  0  0  0  0  0  0  0
   -0.8895   -1.6522    1.0508 C   0  0  0  0  0  0  0  0  0  0  0  0
   -1.1545   -2.2057    2.3156 C   0  0  0  0  0  0  0  0  0  0  0  0
   -2.3909   -2.7750    2.6092 C   0  0  0  0  0  0  0  0  0  0  0  0
   -3.3996   -2.8126    1.6436 C   0  0  0  0  0  0  0  0  0  0  0  0
   -4.6472   -3.3775    1.9381 C   0  0  0  0  0  0  0  0  0  0  0  0
   -5.6574   -3.4198    0.9766 C   0  0  0  0  0  0  0  0  0  0  0  0
   -5.4437   -2.9000   -0.3047 C   0  0  0  0  0  0  0  0  0  0  0  0
   -6.4526   -2.9382   -1.2785 C   0  0  0  0  0  0  0  0  0  0  0  0
   -6.2301   -2.4180   -2.5520 C   0  0  0  0  0  0  0  0  0  0  0  0
   -4.9952   -1.8551   -2.8680 C   0  0  0  0  0  0  0  0  0  0  0  0
   -3.9678   -1.8043   -1.9142 C   0  0  0  0  0  0  0  0  0  0  0  0
   -4.1881   -2.3270   -0.6202 C   0  0  0  0  0  0  0  0  0  0  0  0
   -3.1563   -2.2770    0.3560 C   0  0  0  0  0  0  0  0  0  0  0  0
   -1.8967   -1.6996    0.0461 C   0  0  0  0  0  0  0  0  0  0  0  0
   -1.7105   -1.2004   -1.2604 C   0  0  0  0  0  0  0  0  0  0  0  0
   -2.7245   -1.2467   -2.2201 C   0  0  0  0  0  0  0  0  0  0  0  0
   -0.9954    2.1530    0.7812 C   0  0  0  0  0  0  0  0  0  0  0  0
   -1.9706    3.0093    1.3566 C   0  0  0  0  0  0  0  0  0  0  0  0
   -0.7746    2.2570   -0.6094 C   0  0  0  0  0  0  0  0  0  0  0  0
   -1.4884    3.1550   -1.4063 C   0  0  0  0  0  0  0  0  0  0  0  0
   -4.6929    6.4271   -1.6794 H   0  0  0  0  0  0  0  0  0  0  0  0
   -2.9996    4.9603   -2.7035 H   0  0  0  0  0  0  0  0  0  0  0  0
   -5.1340    6.3255    0.7417 H   0  0  0  0  0  0  0  0  0  0  0  0
   -4.6561    5.3453    2.9662 H   0  0  0  0  0  0  0  0  0  0  0  0
   -3.4096    3.7810    4.3696 H   0  0  0  0  0  0  0  0  0  0  0  0
   -1.7089    2.0181    4.6230 H   0  0  0  0  0  0  0  0  0  0  0  0
   -0.0241    0.5404    3.6494 H   0  0  0  0  0  0  0  0  0  0  0  0
    2.2477    1.8325    1.0932 H   0  0  0  0  0  0  0  0  0  0  0  0
    4.5678    1.4968    0.3658 H   0  0  0  0  0  0  0  0  0  0  0  0
    6.8850    1.1611   -0.3621 H   0  0  0  0  0  0  0  0  0  0  0  0
    9.2208    0.8206   -1.0953 H   0  0  0  0  0  0  0  0  0  0  0  0
   10.9810   -0.6605   -1.9760 H   0  0  0  0  0  0  0  0  0  0  0  0
   10.4786   -3.0378   -2.4742 H   0  0  0  0  0  0  0  0  0  0  0  0
    8.2155   -3.9333   -2.0911 H   0  0  0  0  0  0  0  0  0  0  0  0
    5.8811   -3.5948   -1.3572 H   0  0  0  0  0  0  0  0  0  0  0  0
    3.5636   -3.2573   -0.6290 H   0  0  0  0  0  0  0  0  0  0  0  0
    1.2473   -2.9217    0.1075 H   0  0  0  0  0  0  0  0  0  0  0  0
   -0.3877   -2.1858    3.0877 H   0  0  0  0  0  0  0  0  0  0  0  0
   -2.5579   -3.1851    3.6024 H   0  0  0  0  0  0  0  0  0  0  0  0
   -4.8465   -3.7912    2.9243 H   0  0  0  0  0  0  0  0  0  0  0  0
   -6.6147   -3.8638    1.2397 H   0  0  0  0  0  0  0  0  0  0  0  0
   -7.4229   -3.3739   -1.0507 H   0  0  0  0  0  0  0  0  0  0  0  0
   -7.0194   -2.4509   -3.2982 H   0  0  0  0  0  0  0  0  0  0  0  0
   -4.8400   -1.4533   -3.8667 H   0  0  0  0  0  0  0  0  0  0  0  0
   -0.7600   -0.7599   -1.5516 H   0  0  0  0  0  0  0  0  0  0  0  0
   -2.5292   -0.8389   -3.2091 H   0  0  0  0  0  0  0  0  0  0  0  0
   -0.0351    1.6274   -1.0991 H   0  0  0  0  0  0  0  0  0  0  0  0
   -1.2830    3.1863   -2.4735 H   0  0  0  0  0  0  0  0  0  0  0  0
  1  2  4  0
  2  3  4  0
  3  4  4  0
  4  5  4  0
  5  6  4  0
  5  7  4  0
  7  8  4  0
  8  9  4  0
  9 10  4  0
 10 11  4  0
 11 12  4  0
 12 13  1  0
 13 14  4  0
 14 15  4  0
 15 16  4  0
 16 17  4  0
 17 18  4  0
 18 19  4  0
 19 20  4  0
 20 21  4  0
 21 22  4  0
 22 23  4  0
 23 24  4  0
 24 25  4  0
 25 26  4  0
 26 27  4  0
 27 28  4  0
 28 29  4  0
 29 30  4  0
 30 31  1  0
 31 32  4  0
 32 33  4  0
 33 34  4  0
 34 35  4  0
 35 36  4  0
 36 37  4  0
 37 38  4  0
 38 39  4  0
 39 40  4  0
 40 41  4  0
 41 42  4  0
 42 43  4  0
 43 44  4  0
 44 45  4  0
 45 46  4  0
 12 47  4  0
 47 48  4  0
 47 49  4  0
 49 50  4  0
  6  1  4  0
 48  9  4  0
 50  3  4  0
 48  4  4  0
 30 13  4  0
 44 31  4  0
 28 15  4  0
 43 34  4  0
 26 17  4  0
 42 37  4  0
 24 19  4  0
 46 41  4  0
  1 51  1  0
  2 52  1  0
  6 53  1  0
  7 54  1  0
  8 55  1  0
 10 56  1  0
 11 57  1  0
 14 58  1  0
 16 59  1  0
 18 60  1  0
 20 61  1  0
 21 62  1  0
 22 63  1  0
 23 64  1  0
 25 65  1  0
 27 66  1  0
 29 67  1  0
 32 68  1  0
 33 69  1  0
 35 70  1  0
 36 71  1  0
 38 72  1  0
 39 73  1  0
 40 74  1  0
 45 75  1  0
 46 76  1  0
 49 77  1  0
 50 78  1  0
M  END
