
     RDKit          3D

110125  0  0  0  0  0  0  0  0999 V2000
   -6.1908   -4.5657    4.7830 C   0  0  0  0  0  0  0  0  0  0  0  0
   -5.8346   -3.3906    5.4383 C   0  0  0  0  0  0  0  0  0  0  0  0
   -5.0375   -2.4451    4.7911 C   0  0  0  0  0  0  0  0  0  0  0  0
   -4.5864   -2.6634    3.4791 C   0  0  0  0  0  0  0  0  0  0  0  0
   -3.7863   -1.7209    2.8123 C   0  0  0  0  0  0  0  0  0  0  0  0
   -3.3162   -1.9485    1.5074 C   0  0  0  0  0  0  0  0  0  0  0  0
   -2.4988   -1.0164    0.8411 C   0  0  0  0  0  0  0  0  0  0  0  0
   -1.9630   -1.2473   -0.4498 C   0  0  0  0  0  0  0  0  0  0  0  0
   -2.3407   -2.4455   -1.0909 C   0  0  0  0  0  0  0  0  0  0  0  0
   -3.1756   -3.3701   -0.4398 C   0  0  0  0  0  0  0  0  0  0  0  0
   -3.6596   -3.1427    0.8555 C   0  0  0  0  0  0  0  0  0  0  0  0
   -4.4744   -4.0815    1.5120 C   0  0  0  0  0  0  0  0  0  0  0  0
   -4.9407   -3.8580    2.8175 C   0  0  0  0  0  0  0  0  0  0  0  0
   -5.7460   -4.7992    3.4808 C   0  0  0  0  0  0  0  0  0  0  0  0
   -1.8758   -2.7256   -2.3802 C   0  0  0  0  0  0  0  0  0  0  0  0
   -1.0502   -1.8392   -3.0787 C   0  0  0  0  0  0  0  0  0  0  0  0
   -0.6087   -2.1713   -4.3732 C   0  0  0  0  0  0  0  0  0  0  0  0
    0.2160   -1.3148   -5.1164 C   0  0  0  0  0  0  0  0  0  0  0  0
    0.6745   -1.6564   -6.4004 C   0  0  0  0  0  0  0  0  0  0  0  0
    1.4874   -0.7829   -7.1245 C   0  0  0  0  0  0  0  0  0  0  0  0
    1.8499    0.4428   -6.5754 C   0  0  0  0  0  0  0  0  0  0  0  0
    1.4065    0.7906   -5.2988 C   0  0  0  0  0  0  0  0  0  0  0  0
    0.5933   -0.0834   -4.5563 C   0  0  0  0  0  0  0  0  0  0  0  0
    0.1583    0.2362   -3.2577 C   0  0  0  0  0  0  0  0  0  0  0  0
   -0.6548   -0.6283   -2.4750 C   0  0  0  0  0  0  0  0  0  0  0  0
   -1.0724   -0.3507   -1.1243 C   0  0  0  0  0  0  0  0  0  0  0  0
   -0.5218    0.8512   -0.4294 C   0  0  0  0  0  0  0  0  0  0  0  0
   -1.0453    2.1178   -0.7610 C   0  0  0  0  0  0  0  0  0  0  0  0
   -0.5000    3.3044   -0.2461 C   0  0  0  0  0  0  0  0  0  0  0  0
   -1.0270    4.5608   -0.5869 C   0  0  0  0  0  0  0  0  0  0  0  0
   -0.4750    5.7488   -0.0796 C   0  0  0  0  0  0  0  0  0  0  0  0
   -1.0069    7.0054   -0.4141 C   0  0  0  0  0  0  0  0  0  0  0  0
   -0.4537    8.1924    0.0931 C   0  0  0  0  0  0  0  0  0  0  0  0
   -0.9861    9.4485   -0.2398 C   0  0  0  0  0  0  0  0  0  0  0  0
   -0.4257   10.6190    0.2729 C   0  0  0  0  0  0  0  0  0  0  0  0
    0.6731   10.5491    1.1236 C   0  0  0  0  0  0  0  0  0  0  0  0
    1.2137    9.3084    1.4636 C   0  0  0  0  0  0  0  0  0  0  0  0
    0.6607    8.1215    0.9562 C   0  0  0  0  0  0  0  0  0  0  0  0
    1.1916    6.8651    1.2899 C   0  0  0  0  0  0  0  0  0  0  0  0
    0.6359    5.6781    0.7839 C   0  0  0  0  0  0  0  0  0  0  0  0
    1.1630    4.4212    1.1232 C   0  0  0  0  0  0  0  0  0  0  0  0
    0.6053    3.2340    0.6214 C   0  0  0  0  0  0  0  0  0  0  0  0
    1.1171    1.9779    0.9807 C   0  0  0  0  0  0  0  0  0  0  0  0
    0.5517    0.7782    0.5017 C   0  0  0  0  0  0  0  0  0  0  0  0
    1.0552   -0.5159    1.0502 C   0  0  0  0  0  0  0  0  0  0  0  0
    0.6386   -0.9271    2.3655 C   0  0  0  0  0  0  0  0  0  0  0  0
   -0.1129   -0.1149    3.2577 C   0  0  0  0  0  0  0  0  0  0  0  0
   -0.5172   -0.5443    4.5335 C   0  0  0  0  0  0  0  0  0  0  0  0
   -1.2456    0.2929    5.3967 C   0  0  0  0  0  0  0  0  0  0  0  0
   -1.6412   -0.1529    6.6583 C   0  0  0  0  0  0  0  0  0  0  0  0
   -1.3208   -1.4432    7.0681 C   0  0  0  0  0  0  0  0  0  0  0  0
   -0.6002   -2.2849    6.2188 C   0  0  0  0  0  0  0  0  0  0  0  0
   -0.1855   -1.8437    4.9504 C   0  0  0  0  0  0  0  0  0  0  0  0
    0.5561   -2.6630    4.0861 C   0  0  0  0  0  0  0  0  0  0  0  0
    0.9779   -2.2177    2.8188 C   0  0  0  0  0  0  0  0  0  0  0  0
    1.7330   -3.0642    1.9992 C   0  0  0  0  0  0  0  0  0  0  0  0
    2.2062   -2.6559    0.7466 C   0  0  0  0  0  0  0  0  0  0  0  0
    2.9812   -3.5363   -0.0304 C   0  0  0  0  0  0  0  0  0  0  0  0
    3.4875   -3.1647   -1.2846 C   0  0  0  0  0  0  0  0  0  0  0  0
    4.2424   -4.0521   -2.0725 C   0  0  0  0  0  0  0  0  0  0  0  0
    4.7379   -3.6729   -3.3315 C   0  0  0  0  0  0  0  0  0  0  0  0
    5.4808   -4.5599   -4.1287 C   0  0  0  0  0  0  0  0  0  0  0  0
    5.9575   -4.1668   -5.3805 C   0  0  0  0  0  0  0  0  0  0  0  0
    5.6978   -2.8834   -5.8516 C   0  0  0  0  0  0  0  0  0  0  0  0
    4.9627   -1.9908   -5.0707 C   0  0  0  0  0  0  0  0  0  0  0  0
    4.4786   -2.3713   -3.8087 C   0  0  0  0  0  0  0  0  0  0  0  0
    3.7363   -1.4851   -3.0131 C   0  0  0  0  0  0  0  0  0  0  0  0
    3.2311   -1.8700   -1.7602 C   0  0  0  0  0  0  0  0  0  0  0  0
    2.4624   -0.9921   -0.9758 C   0  0  0  0  0  0  0  0  0  0  0  0
    1.9007   -1.3653    0.2684 C   0  0  0  0  0  0  0  0  0  0  0  0
   -6.8099   -5.3034    5.2865 H   0  0  0  0  0  0  0  0  0  0  0  0
   -6.1745   -3.2090    6.4544 H   0  0  0  0  0  0  0  0  0  0  0  0
   -4.7636   -1.5349    5.3203 H   0  0  0  0  0  0  0  0  0  0  0  0
   -3.5110   -0.8010    3.3244 H   0  0  0  0  0  0  0  0  0  0  0  0
   -2.2655   -0.0856    1.3530 H   0  0  0  0  0  0  0  0  0  0  0  0
   -3.4452   -4.2948   -0.9477 H   0  0  0  0  0  0  0  0  0  0  0  0
   -4.7419   -5.0050    1.0023 H   0  0  0  0  0  0  0  0  0  0  0  0
   -6.0289   -5.7257    2.9865 H   0  0  0  0  0  0  0  0  0  0  0  0
   -2.1699   -3.6604   -2.8563 H   0  0  0  0  0  0  0  0  0  0  0  0
   -0.9058   -3.1236   -4.8098 H   0  0  0  0  0  0  0  0  0  0  0  0
    0.4049   -2.6125   -6.8435 H   0  0  0  0  0  0  0  0  0  0  0  0
    1.8351   -1.0615   -8.1157 H   0  0  0  0  0  0  0  0  0  0  0  0
    2.4789    1.1273   -7.1381 H   0  0  0  0  0  0  0  0  0  0  0  0
    1.7035    1.7506   -4.8823 H   0  0  0  0  0  0  0  0  0  0  0  0
    0.4833    1.1877   -2.8413 H   0  0  0  0  0  0  0  0  0  0  0  0
   -1.8829    2.1704   -1.4568 H   0  0  0  0  0  0  0  0  0  0  0  0
   -1.8825    4.6140   -1.2586 H   0  0  0  0  0  0  0  0  0  0  0  0
   -1.8674    7.0618   -1.0785 H   0  0  0  0  0  0  0  0  0  0  0  0
   -1.8448    9.5249   -0.9032 H   0  0  0  0  0  0  0  0  0  0  0  0
   -0.8478   11.5847    0.0073 H   0  0  0  0  0  0  0  0  0  0  0  0
    1.1105   11.4602    1.5236 H   0  0  0  0  0  0  0  0  0  0  0  0
    2.0726    9.2762    2.1304 H   0  0  0  0  0  0  0  0  0  0  0  0
    2.0509    6.8097    1.9559 H   0  0  0  0  0  0  0  0  0  0  0  0
    2.0205    4.3652    1.7917 H   0  0  0  0  0  0  0  0  0  0  0  0
    1.9549    1.9189    1.6758 H   0  0  0  0  0  0  0  0  0  0  0  0
   -0.4000    0.8900    2.9545 H   0  0  0  0  0  0  0  0  0  0  0  0
   -1.5061    1.3039    5.0902 H   0  0  0  0  0  0  0  0  0  0  0  0
   -2.1994    0.5060    7.3182 H   0  0  0  0  0  0  0  0  0  0  0  0
   -1.6306   -1.7976    8.0478 H   0  0  0  0  0  0  0  0  0  0  0  0
   -0.3653   -3.2932    6.5523 H   0  0  0  0  0  0  0  0  0  0  0  0
    0.8151   -3.6698    4.4101 H   0  0  0  0  0  0  0  0  0  0  0  0
    1.9729   -4.0657    2.3543 H   0  0  0  0  0  0  0  0  0  0  0  0
    3.1895   -4.5364    0.3461 H   0  0  0  0  0  0  0  0  0  0  0  0
    4.4390   -5.0569   -1.7042 H   0  0  0  0  0  0  0  0  0  0  0  0
    5.6893   -5.5686   -3.7800 H   0  0  0  0  0  0  0  0  0  0  0  0
    6.5272   -4.8646   -5.9883 H   0  0  0  0  0  0  0  0  0  0  0  0
    6.0643   -2.5762   -6.8273 H   0  0  0  0  0  0  0  0  0  0  0  0
    4.7618   -0.9938   -5.4562 H   0  0  0  0  0  0  0  0  0  0  0  0
    3.5326   -0.4824   -3.3830 H   0  0  0  0  0  0  0  0  0  0  0  0
    2.2916    0.0132   -1.3543 H   0  0  0  0  0  0  0  0  0  0  0  0
  1  2  4  0
  2  3  4  0
  3  4  4  0
  4  5  4  0
  5  6  4  0
  6  7  4  0
  7  8  4  0
  8  9  4  0
  9 10  4  0
 10 11  4  0
 11 12  4  0
 12 13  4  0
 13 14  4  0
  9 15  4  0
 15 16  4  0
 16 17  4  0
 17 18  4  0
 18 19  4  0
 19 20  4  0
 20 21  4  0
 21 22  4  0
 22 23  4  0
 23 24  4  0
 24 25  4  0
 25 26  4  0
 26 27  1  0
 27 28  4  0
 28 29  4  0
 29 30  4  0
 30 31  4  0
 31 32  4  0
 32 33  4  0
 33 34  4  0
 34 35  4  0
 35 36  4  0
 36 37  4  0
 37 38  4  0
 38 39  4  0
 39 40  4  0
 40 41  4  0
 41 42  4  0
 42 43  4  0
 43 44  4  0
 44 45  1  0
 45 46  4  0
 46 47  4  0
 47 48  4  0
 48 49  4  0
 49 50  4  0
 50 51  4  0
 51 52  4  0
 52 53  4  0
 53 54  4  0
 54 55  4  0
 55 56  4  0
 56 57  4  0
 57 58  4  0
 58 59  4  0
 59 60  4  0
 60 61  4  0
 61 62  4  0
 62 63  4  0
 63 64  4  0
 64 65  4  0
 65 66  4  0
 66 67  4  0
 67 68  4  0
 68 69  4  0
 69 70  4  0
 14  1  4  0
 25 16  4  0
 44 27  4  0
 70 45  4  0
 13  4  4  0
 23 18  4  0
 42 29  4  0
 55 46  4  0
 70 57  4  0
 11  6  4  0
 40 31  4  0
 53 48  4  0
 68 59  4  0
 26  8  4  0
 38 33  4  0
 66 61  4  0
  1 71  1  0
  2 72  1  0
  3 73  1  0
  5 74  1  0
  7 75  1  0
 10 76  1  0
 12 77  1  0
 14 78  1  0
 15 79  1  0
 17 80  1  0
 19 81  1  0
 20 82  1  0
 21 83  1  0
 22 84  1  0
 24 85  1  0
 28 86  1  0
 30 87  1  0
 32 88  1  0
 34 89  1  0
 35 90  1  0
 36 91  1  0
 37 92  1  0
 39 93  1  0
 41 94  1  0
 43 95  1  0
 47 96  1  0
 49 97  1  0
 50 98  1  0
 51 99  1  0
 52100  1  0
 54101  1  0
 56102  1  0
 58103  1  0
 60104  1  0
 62105  1  0
 63106  1  0
 64107  1  0
 65108  1  0
 67109  1  0
 69110  1  0
M  END
