
     RDKit          3D

110125  0  0  0  0  0  0  0  0999 V2000
  -11.2657   -8.8639   -1.7330 C   0  0  0  0  0  0  0  0  0  0  0  0
  -11.7848   -8.0022   -2.6942 C   0  0  0  0  0  0  0  0  0  0  0  0
  -11.2040   -6.7486   -2.8921 C   0  0  0  0  0  0  0  0  0  0  0  0
  -10.0962   -6.3412   -2.1305 C   0  0  0  0  0  0  0  0  0  0  0  0
   -9.5005   -5.0830   -2.3177 C   0  0  0  0  0  0  0  0  0  0  0  0
   -8.3923   -4.6761   -1.5555 C   0  0  0  0  0  0  0  0  0  0  0  0
   -7.7964   -3.4175   -1.7428 C   0  0  0  0  0  0  0  0  0  0  0  0
   -6.6884   -3.0095   -0.9813 C   0  0  0  0  0  0  0  0  0  0  0  0
   -6.0928   -1.7507   -1.1689 C   0  0  0  0  0  0  0  0  0  0  0  0
   -4.9847   -1.3426   -0.4077 C   0  0  0  0  0  0  0  0  0  0  0  0
   -4.3897   -0.0837   -0.5965 C   0  0  0  0  0  0  0  0  0  0  0  0
   -3.2813    0.3244    0.1639 C   0  0  0  0  0  0  0  0  0  0  0  0
   -2.6841    1.5830   -0.0265 C   0  0  0  0  0  0  0  0  0  0  0  0
   -1.5729    1.9929    0.7295 C   0  0  0  0  0  0  0  0  0  0  0  0
   -0.9650    3.3184    0.5095 C   0  0  0  0  0  0  0  0  0  0  0  0
   -1.7105    4.4644    0.8560 C   0  0  0  0  0  0  0  0  0  0  0  0
   -1.2061    5.7630    0.6814 C   0  0  0  0  0  0  0  0  0  0  0  0
   -1.9591    6.8966    1.0304 C   0  0  0  0  0  0  0  0  0  0  0  0
   -1.4543    8.1955    0.8513 C   0  0  0  0  0  0  0  0  0  0  0  0
   -2.2082    9.3291    1.1993 C   0  0  0  0  0  0  0  0  0  0  0  0
   -1.7043   10.6278    1.0186 C   0  0  0  0  0  0  0  0  0  0  0  0
   -2.4577   11.7615    1.3660 C   0  0  0  0  0  0  0  0  0  0  0  0
   -1.9432   13.0454    1.1801 C   0  0  0  0  0  0  0  0  0  0  0  0
   -0.6698   13.2126    0.6450 C   0  0  0  0  0  0  0  0  0  0  0  0
    0.0910   12.0960    0.2950 C   0  0  0  0  0  0  0  0  0  0  0  0
   -0.4129   10.7972    0.4761 C   0  0  0  0  0  0  0  0  0  0  0  0
    0.3402    9.6631    0.1292 C   0  0  0  0  0  0  0  0  0  0  0  0
   -0.1649    8.3642    0.3104 C   0  0  0  0  0  0  0  0  0  0  0  0
    0.5879    7.2292   -0.0359 C   0  0  0  0  0  0  0  0  0  0  0  0
    0.0820    5.9307    0.1444 C   0  0  0  0  0  0  0  0  0  0  0  0
    0.8322    4.7949   -0.2008 C   0  0  0  0  0  0  0  0  0  0  0  0
    0.3329    3.4872   -0.0288 C   0  0  0  0  0  0  0  0  0  0  0  0
    1.1848    2.3524   -0.4295 C   0  0  0  0  0  0  0  0  0  0  0  0
    2.3530    2.0466    0.2889 C   0  0  0  0  0  0  0  0  0  0  0  0
    3.1789    0.9676   -0.0729 C   0  0  0  0  0  0  0  0  0  0  0  0
    4.3426    0.6597    0.6515 C   0  0  0  0  0  0  0  0  0  0  0  0
    5.1669   -0.4198    0.2912 C   0  0  0  0  0  0  0  0  0  0  0  0
    6.3302   -0.7281    1.0165 C   0  0  0  0  0  0  0  0  0  0  0  0
    7.1550   -1.8074    0.6568 C   0  0  0  0  0  0  0  0  0  0  0  0
    8.3184   -2.1158    1.3822 C   0  0  0  0  0  0  0  0  0  0  0  0
    9.1432   -3.1951    1.0225 C   0  0  0  0  0  0  0  0  0  0  0  0
   10.3066   -3.5028    1.7485 C   0  0  0  0  0  0  0  0  0  0  0  0
   11.1309   -4.5818    1.3886 C   0  0  0  0  0  0  0  0  0  0  0  0
   12.2940   -4.8901    2.1137 C   0  0  0  0  0  0  0  0  0  0  0  0
   13.1025   -5.9657    1.7432 C   0  0  0  0  0  0  0  0  0  0  0  0
   12.7591   -6.7465    0.6439 C   0  0  0  0  0  0  0  0  0  0  0  0
   11.6067   -6.4527   -0.0865 C   0  0  0  0  0  0  0  0  0  0  0  0
   10.7828   -5.3736    0.2739 C   0  0  0  0  0  0  0  0  0  0  0  0
    9.6198   -5.0652   -0.4511 C   0  0  0  0  0  0  0  0  0  0  0  0
    8.7959   -3.9856   -0.0902 C   0  0  0  0  0  0  0  0  0  0  0  0
    7.6325   -3.6771   -0.8153 C   0  0  0  0  0  0  0  0  0  0  0  0
    6.8079   -2.5978   -0.4554 C   0  0  0  0  0  0  0  0  0  0  0  0
    5.6445   -2.2898   -1.1808 C   0  0  0  0  0  0  0  0  0  0  0  0
    4.8196   -1.2105   -0.8211 C   0  0  0  0  0  0  0  0  0  0  0  0
    3.6558   -0.9031   -1.5463 C   0  0  0  0  0  0  0  0  0  0  0  0
    2.8313    0.1756   -1.1857 C   0  0  0  0  0  0  0  0  0  0  0  0
    1.6687    0.4823   -1.9082 C   0  0  0  0  0  0  0  0  0  0  0  0
    0.8584    1.5580   -1.5355 C   0  0  0  0  0  0  0  0  0  0  0  0
   -1.0689    1.1153    1.6972 C   0  0  0  0  0  0  0  0  0  0  0  0
   -1.6494   -0.1402    1.8972 C   0  0  0  0  0  0  0  0  0  0  0  0
   -2.7555   -0.5483    1.1376 C   0  0  0  0  0  0  0  0  0  0  0  0
   -3.3501   -1.8069    1.3259 C   0  0  0  0  0  0  0  0  0  0  0  0
   -4.4589   -2.2146    0.5650 C   0  0  0  0  0  0  0  0  0  0  0  0
   -5.0547   -3.4733    0.7527 C   0  0  0  0  0  0  0  0  0  0  0  0
   -6.1630   -3.8814   -0.0086 C   0  0  0  0  0  0  0  0  0  0  0  0
   -6.7588   -5.1403    0.1789 C   0  0  0  0  0  0  0  0  0  0  0  0
   -7.8670   -5.5485   -0.5825 C   0  0  0  0  0  0  0  0  0  0  0  0
   -8.4622   -6.8075   -0.3944 C   0  0  0  0  0  0  0  0  0  0  0  0
   -9.5699   -7.2152   -1.1558 C   0  0  0  0  0  0  0  0  0  0  0  0
  -10.1654   -8.4735   -0.9683 C   0  0  0  0  0  0  0  0  0  0  0  0
  -11.7161   -9.8405   -1.5769 H   0  0  0  0  0  0  0  0  0  0  0  0
  -12.6416   -8.3042   -3.2907 H   0  0  0  0  0  0  0  0  0  0  0  0
  -11.6237   -6.0889   -3.6482 H   0  0  0  0  0  0  0  0  0  0  0  0
   -9.9066   -4.4090   -3.0697 H   0  0  0  0  0  0  0  0  0  0  0  0
   -8.2025   -2.7435   -2.4951 H   0  0  0  0  0  0  0  0  0  0  0  0
   -6.4984   -1.0765   -1.9213 H   0  0  0  0  0  0  0  0  0  0  0  0
   -4.7957    0.5899   -1.3490 H   0  0  0  0  0  0  0  0  0  0  0  0
   -3.0828    2.2562   -0.7840 H   0  0  0  0  0  0  0  0  0  0  0  0
   -2.7061    4.3333    1.2798 H   0  0  0  0  0  0  0  0  0  0  0  0
   -2.9558    6.7657    1.4484 H   0  0  0  0  0  0  0  0  0  0  0  0
   -3.2045    9.1988    1.6179 H   0  0  0  0  0  0  0  0  0  0  0  0
   -3.4550   11.6512    1.7859 H   0  0  0  0  0  0  0  0  0  0  0  0
   -2.5373   13.9135    1.4534 H   0  0  0  0  0  0  0  0  0  0  0  0
   -0.2671   14.2115    0.4993 H   0  0  0  0  0  0  0  0  0  0  0  0
    1.0843   12.2473   -0.1217 H   0  0  0  0  0  0  0  0  0  0  0  0
    1.3364    9.7943   -0.2893 H   0  0  0  0  0  0  0  0  0  0  0  0
    1.5848    7.3587   -0.4538 H   0  0  0  0  0  0  0  0  0  0  0  0
    1.8277    4.9236   -0.6254 H   0  0  0  0  0  0  0  0  0  0  0  0
    2.6152    2.6566    1.1521 H   0  0  0  0  0  0  0  0  0  0  0  0
    4.6111    1.2705    1.5115 H   0  0  0  0  0  0  0  0  0  0  0  0
    6.5981   -0.1173    1.8768 H   0  0  0  0  0  0  0  0  0  0  0  0
    8.5873   -1.5051    2.2423 H   0  0  0  0  0  0  0  0  0  0  0  0
   10.5756   -2.8923    2.6085 H   0  0  0  0  0  0  0  0  0  0  0  0
   12.5793   -4.2916    2.9760 H   0  0  0  0  0  0  0  0  0  0  0  0
   13.9995   -6.1926    2.3134 H   0  0  0  0  0  0  0  0  0  0  0  0
   13.3873   -7.5845    0.3536 H   0  0  0  0  0  0  0  0  0  0  0  0
   11.3549   -7.0745   -0.9427 H   0  0  0  0  0  0  0  0  0  0  0  0
    9.3519   -5.6765   -1.3109 H   0  0  0  0  0  0  0  0  0  0  0  0
    7.3642   -4.2882   -1.6754 H   0  0  0  0  0  0  0  0  0  0  0  0
    5.3760   -2.9012   -2.0406 H   0  0  0  0  0  0  0  0  0  0  0  0
    3.3865   -1.5146   -2.4057 H   0  0  0  0  0  0  0  0  0  0  0  0
    1.3799   -0.1165   -2.7691 H   0  0  0  0  0  0  0  0  0  0  0  0
   -0.0377    1.7706   -2.1149 H   0  0  0  0  0  0  0  0  0  0  0  0
   -0.2119    1.4032    2.3027 H   0  0  0  0  0  0  0  0  0  0  0  0
   -1.2256   -0.7980    2.6527 H   0  0  0  0  0  0  0  0  0  0  0  0
   -2.9416   -2.4809    2.0766 H   0  0  0  0  0  0  0  0  0  0  0  0
   -4.6486   -4.1478    1.5046 H   0  0  0  0  0  0  0  0  0  0  0  0
   -6.3528   -5.8149    0.9307 H   0  0  0  0  0  0  0  0  0  0  0  0
   -8.0566   -7.4821    0.3574 H   0  0  0  0  0  0  0  0  0  0  0  0
   -9.7743   -9.1613   -0.2219 H   0  0  0  0  0  0  0  0  0  0  0  0
  1  2  4  0
  2  3  4  0
  3  4  4  0
  4  5  4  0
  5  6  4  0
  6  7  4  0
  7  8  4  0
  8  9  4  0
  9 10  4  0
 10 11  4  0
 11 12  4  0
 12 13  4  0
 13 14  4  0
 14 15  1  0
 15 16  4  0
 16 17  4  0
 17 18  4  0
 18 19  4  0
 19 20  4  0
 20 21  4  0
 21 22  4  0
 22 23  4  0
 23 24  4  0
 24 25  4  0
 25 26  4  0
 26 27  4  0
 27 28  4  0
 28 29  4  0
 29 30  4  0
 30 31  4  0
 31 32  4  0
 32 33  1  0
 33 34  4  0
 34 35  4  0
 35 36  4  0
 36 37  4  0
 37 38  4  0
 38 39  4  0
 39 40  4  0
 40 41  4  0
 41 42  4  0
 42 43  4  0
 43 44  4  0
 44 45  4  0
 45 46  4  0
 46 47  4  0
 47 48  4  0
 48 49  4  0
 49 50  4  0
 50 51  4  0
 51 52  4  0
 52 53  4  0
 53 54  4  0
 54 55  4  0
 55 56  4  0
 56 57  4  0
 57 58  4  0
 14 59  4  0
 59 60  4  0
 60 61  4  0
 61 62  4  0
 62 63  4  0
 63 64  4  0
 64 65  4  0
 65 66  4  0
 66 67  4  0
 67 68  4  0
 68 69  4  0
 69 70  4  0
 70  1  4  0
 69  4  4  0
 67  6  4  0
 65  8  4  0
 63 10  4  0
 61 12  4  0
 32 15  4  0
 58 33  4  0
 30 17  4  0
 56 35  4  0
 28 19  4  0
 54 37  4  0
 26 21  4  0
 52 39  4  0
 50 41  4  0
 48 43  4  0
  1 71  1  0
  2 72  1  0
  3 73  1  0
  5 74  1  0
  7 75  1  0
  9 76  1  0
 11 77  1  0
 13 78  1  0
 16 79  1  0
 18 80  1  0
 20 81  1  0
 22 82  1  0
 23 83  1  0
 24 84  1  0
 25 85  1  0
 27 86  1  0
 29 87  1  0
 31 88  1  0
 34 89  1  0
 36 90  1  0
 38 91  1  0
 40 92  1  0
 42 93  1  0
 44 94  1  0
 45 95  1  0
 46 96  1  0
 47 97  1  0
 49 98  1  0
 51 99  1  0
 53100  1  0
 55101  1  0
 57102  1  0
 58103  1  0
 59104  1  0
 60105  1  0
 62106  1  0
 64107  1  0
 66108  1  0
 68109  1  0
 70110  1  0
M  END
