
     RDKit          3D

110125  0  0  0  0  0  0  0  0999 V2000
    4.6251    7.9413    3.9751 C   0  0  0  0  0  0  0  0  0  0  0  0
    4.2322    7.0780    4.9931 C   0  0  0  0  0  0  0  0  0  0  0  0
    3.7441    5.8084    4.6803 C   0  0  0  0  0  0  0  0  0  0  0  0
    3.6429    5.3861    3.3442 C   0  0  0  0  0  0  0  0  0  0  0  0
    3.1537    4.1116    3.0128 C   0  0  0  0  0  0  0  0  0  0  0  0
    3.0523    3.6900    1.6761 C   0  0  0  0  0  0  0  0  0  0  0  0
    2.5629    2.4152    1.3448 C   0  0  0  0  0  0  0  0  0  0  0  0
    2.4599    1.9935    0.0085 C   0  0  0  0  0  0  0  0  0  0  0  0
    1.9679    0.7202   -0.3233 C   0  0  0  0  0  0  0  0  0  0  0  0
    1.8789    0.2940   -1.6595 C   0  0  0  0  0  0  0  0  0  0  0  0
    1.3957   -0.9830   -1.9926 C   0  0  0  0  0  0  0  0  0  0  0  0
    1.3110   -1.4437   -3.3295 C   0  0  0  0  0  0  0  0  0  0  0  0
    1.7343   -0.5588   -4.3494 C   0  0  0  0  0  0  0  0  0  0  0  0
    2.2059    0.7232   -4.0180 C   0  0  0  0  0  0  0  0  0  0  0  0
    2.2867    1.1600   -2.6866 C   0  0  0  0  0  0  0  0  0  0  0  0
    2.7700    2.4380   -2.3572 C   0  0  0  0  0  0  0  0  0  0  0  0
    2.8624    2.8649   -1.0216 C   0  0  0  0  0  0  0  0  0  0  0  0
    3.3510    4.1400   -0.6905 C   0  0  0  0  0  0  0  0  0  0  0  0
    3.4504    4.5637    0.6456 C   0  0  0  0  0  0  0  0  0  0  0  0
    3.9399    5.8388    0.9760 C   0  0  0  0  0  0  0  0  0  0  0  0
    4.0413    6.2616    2.3119 C   0  0  0  0  0  0  0  0  0  0  0  0
    4.5305    7.5363    2.6429 C   0  0  0  0  0  0  0  0  0  0  0  0
    1.6853   -0.9633   -5.6916 C   0  0  0  0  0  0  0  0  0  0  0  0
    1.2316   -2.2311   -6.0412 C   0  0  0  0  0  0  0  0  0  0  0  0
    0.8098   -3.1101   -5.0501 C   0  0  0  0  0  0  0  0  0  0  0  0
    0.8268   -2.7373   -3.6933 C   0  0  0  0  0  0  0  0  0  0  0  0
    0.3476   -3.7126   -2.6882 C   0  0  0  0  0  0  0  0  0  0  0  0
    1.2983   -4.4064   -1.9129 C   0  0  0  0  0  0  0  0  0  0  0  0
    0.9188   -5.3169   -0.9146 C   0  0  0  0  0  0  0  0  0  0  0  0
    1.8741   -5.9890   -0.1345 C   0  0  0  0  0  0  0  0  0  0  0  0
    1.4933   -6.8905    0.8733 C   0  0  0  0  0  0  0  0  0  0  0  0
    2.4485   -7.5600    1.6566 C   0  0  0  0  0  0  0  0  0  0  0  0
    2.0674   -8.4584    2.6669 C   0  0  0  0  0  0  0  0  0  0  0  0
    3.0213   -9.1282    3.4511 C   0  0  0  0  0  0  0  0  0  0  0  0
    2.6261  -10.0168    4.4521 C   0  0  0  0  0  0  0  0  0  0  0  0
    1.2733  -10.2472    4.6820 C   0  0  0  0  0  0  0  0  0  0  0  0
    0.3137   -9.5896    3.9110 C   0  0  0  0  0  0  0  0  0  0  0  0
    0.6955   -8.6928    2.8997 C   0  0  0  0  0  0  0  0  0  0  0  0
   -0.2584   -8.0240    2.1151 C   0  0  0  0  0  0  0  0  0  0  0  0
    0.1239   -7.1263    1.1043 C   0  0  0  0  0  0  0  0  0  0  0  0
   -0.8304   -6.4575    0.3196 C   0  0  0  0  0  0  0  0  0  0  0  0
   -0.4487   -5.5555   -0.6869 C   0  0  0  0  0  0  0  0  0  0  0  0
   -1.4017   -4.8851   -1.4698 C   0  0  0  0  0  0  0  0  0  0  0  0
   -1.0279   -3.9659   -2.4695 C   0  0  0  0  0  0  0  0  0  0  0  0
   -2.0925   -3.3073   -3.2572 C   0  0  0  0  0  0  0  0  0  0  0  0
   -2.5907   -3.9828   -4.3877 C   0  0  0  0  0  0  0  0  0  0  0  0
   -3.5717   -3.4117   -5.1903 C   0  0  0  0  0  0  0  0  0  0  0  0
   -4.0746   -2.1539   -4.8740 C   0  0  0  0  0  0  0  0  0  0  0  0
   -3.6153   -1.4553   -3.7475 C   0  0  0  0  0  0  0  0  0  0  0  0
   -4.1388   -0.1870   -3.4436 C   0  0  0  0  0  0  0  0  0  0  0  0
   -3.7097    0.5386   -2.3216 C   0  0  0  0  0  0  0  0  0  0  0  0
   -4.2303    1.8093   -2.0224 C   0  0  0  0  0  0  0  0  0  0  0  0
   -3.7987    2.5322   -0.8977 C   0  0  0  0  0  0  0  0  0  0  0  0
   -4.3169    3.8035   -0.5983 C   0  0  0  0  0  0  0  0  0  0  0  0
   -3.8838    4.5261    0.5263 C   0  0  0  0  0  0  0  0  0  0  0  0
   -4.4017    5.7978    0.8253 C   0  0  0  0  0  0  0  0  0  0  0  0
   -3.9679    6.5198    1.9495 C   0  0  0  0  0  0  0  0  0  0  0  0
   -4.4852    7.7911    2.2491 C   0  0  0  0  0  0  0  0  0  0  0  0
   -4.0437    8.4959    3.3699 C   0  0  0  0  0  0  0  0  0  0  0  0
   -3.0802    7.9394    4.2052 C   0  0  0  0  0  0  0  0  0  0  0  0
   -2.5567    6.6772    3.9210 C   0  0  0  0  0  0  0  0  0  0  0  0
   -2.9908    5.9554    2.7967 C   0  0  0  0  0  0  0  0  0  0  0  0
   -2.4738    4.6842    2.4969 C   0  0  0  0  0  0  0  0  0  0  0  0
   -2.9086    3.9629    1.3722 C   0  0  0  0  0  0  0  0  0  0  0  0
   -2.3913    2.6916    1.0726 C   0  0  0  0  0  0  0  0  0  0  0  0
   -2.8240    1.9698   -0.0521 C   0  0  0  0  0  0  0  0  0  0  0  0
   -2.3048    0.6995   -0.3521 C   0  0  0  0  0  0  0  0  0  0  0  0
   -2.7369   -0.0217   -1.4776 C   0  0  0  0  0  0  0  0  0  0  0  0
   -2.2164   -1.2913   -1.7806 C   0  0  0  0  0  0  0  0  0  0  0  0
   -2.6240   -2.0295   -2.9162 C   0  0  0  0  0  0  0  0  0  0  0  0
    5.0054    8.9304    4.2164 H   0  0  0  0  0  0  0  0  0  0  0  0
    4.3050    7.3913    6.0313 H   0  0  0  0  0  0  0  0  0  0  0  0
    3.4420    5.1480    5.4901 H   0  0  0  0  0  0  0  0  0  0  0  0
    2.8463    3.4365    3.8093 H   0  0  0  0  0  0  0  0  0  0  0  0
    2.2611    1.7381    2.1419 H   0  0  0  0  0  0  0  0  0  0  0  0
    1.6531    0.0460    0.4711 H   0  0  0  0  0  0  0  0  0  0  0  0
    1.0786   -1.6368   -1.1825 H   0  0  0  0  0  0  0  0  0  0  0  0
    2.5216    1.3951   -4.8143 H   0  0  0  0  0  0  0  0  0  0  0  0
    3.0841    3.1098   -3.1542 H   0  0  0  0  0  0  0  0  0  0  0  0
    3.6617    4.8147   -1.4865 H   0  0  0  0  0  0  0  0  0  0  0  0
    4.2479    6.5144    0.1801 H   0  0  0  0  0  0  0  0  0  0  0  0
    4.8426    8.2254    1.8614 H   0  0  0  0  0  0  0  0  0  0  0  0
    2.0066   -0.2881   -6.4821 H   0  0  0  0  0  0  0  0  0  0  0  0
    1.2023   -2.5320   -7.0848 H   0  0  0  0  0  0  0  0  0  0  0  0
    0.4557   -4.0980   -5.3379 H   0  0  0  0  0  0  0  0  0  0  0  0
    2.3567   -4.2153   -2.0902 H   0  0  0  0  0  0  0  0  0  0  0  0
    2.9323   -5.8050   -0.3125 H   0  0  0  0  0  0  0  0  0  0  0  0
    3.5068   -7.3783    1.4780 H   0  0  0  0  0  0  0  0  0  0  0  0
    4.0836   -8.9616    3.2869 H   0  0  0  0  0  0  0  0  0  0  0  0
    3.3751  -10.5278    5.0514 H   0  0  0  0  0  0  0  0  0  0  0  0
    0.9634  -10.9384    5.4614 H   0  0  0  0  0  0  0  0  0  0  0  0
   -0.7389   -9.7825    4.1060 H   0  0  0  0  0  0  0  0  0  0  0  0
   -1.3165   -8.2050    2.2954 H   0  0  0  0  0  0  0  0  0  0  0  0
   -1.8889   -6.6405    0.4971 H   0  0  0  0  0  0  0  0  0  0  0  0
   -2.4621   -5.0712   -1.3004 H   0  0  0  0  0  0  0  0  0  0  0  0
   -2.1979   -4.9634   -4.6505 H   0  0  0  0  0  0  0  0  0  0  0  0
   -3.9392   -3.9426   -6.0641 H   0  0  0  0  0  0  0  0  0  0  0  0
   -4.8368   -1.7200   -5.5180 H   0  0  0  0  0  0  0  0  0  0  0  0
   -4.8949    0.2470   -4.0953 H   0  0  0  0  0  0  0  0  0  0  0  0
   -4.9833    2.2432   -2.6776 H   0  0  0  0  0  0  0  0  0  0  0  0
   -5.0703    4.2389   -1.2524 H   0  0  0  0  0  0  0  0  0  0  0  0
   -5.1553    6.2341    0.1721 H   0  0  0  0  0  0  0  0  0  0  0  0
   -5.2390    8.2429    1.6082 H   0  0  0  0  0  0  0  0  0  0  0  0
   -4.4528    9.4786    3.5894 H   0  0  0  0  0  0  0  0  0  0  0  0
   -2.7350    8.4864    5.0786 H   0  0  0  0  0  0  0  0  0  0  0  0
   -1.8043    6.2591    4.5860 H   0  0  0  0  0  0  0  0  0  0  0  0
   -1.7198    4.2495    3.1506 H   0  0  0  0  0  0  0  0  0  0  0  0
   -1.6380    2.2560    1.7258 H   0  0  0  0  0  0  0  0  0  0  0  0
   -1.5468    0.2662    0.2976 H   0  0  0  0  0  0  0  0  0  0  0  0
   -1.4701   -1.7139   -1.1115 H   0  0  0  0  0  0  0  0  0  0  0  0
  1  2  4  0
  2  3  4  0
  3  4  4  0
  4  5  4  0
  5  6  4  0
  6  7  4  0
  7  8  4  0
  8  9  4  0
  9 10  4  0
 10 11  4  0
 11 12  4  0
 12 13  4  0
 13 14  4  0
 14 15  4  0
 15 16  4  0
 16 17  4  0
 17 18  4  0
 18 19  4  0
 19 20  4  0
 20 21  4  0
 21 22  4  0
 13 23  4  0
 23 24  4  0
 24 25  4  0
 25 26  4  0
 26 27  1  0
 27 28  4  0
 28 29  4  0
 29 30  4  0
 30 31  4  0
 31 32  4  0
 32 33  4  0
 33 34  4  0
 34 35  4  0
 35 36  4  0
 36 37  4  0
 37 38  4  0
 38 39  4  0
 39 40  4  0
 40 41  4  0
 41 42  4  0
 42 43  4  0
 43 44  4  0
 44 45  1  0
 45 46  4  0
 46 47  4  0
 47 48  4  0
 48 49  4  0
 49 50  4  0
 50 51  4  0
 51 52  4  0
 52 53  4  0
 53 54  4  0
 54 55  4  0
 55 56  4  0
 56 57  4  0
 57 58  4  0
 58 59  4  0
 59 60  4  0
 60 61  4  0
 61 62  4  0
 62 63  4  0
 63 64  4  0
 64 65  4  0
 65 66  4  0
 66 67  4  0
 67 68  4  0
 68 69  4  0
 69 70  4  0
 22  1  4  0
 44 27  4  0
 70 45  4  0
 21  4  4  0
 42 29  4  0
 70 49  4  0
 19  6  4  0
 40 31  4  0
 68 51  4  0
 17  8  4  0
 38 33  4  0
 66 53  4  0
 15 10  4  0
 64 55  4  0
 26 12  4  0
 62 57  4  0
  1 71  1  0
  2 72  1  0
  3 73  1  0
  5 74  1  0
  7 75  1  0
  9 76  1  0
 11 77  1  0
 14 78  1  0
 16 79  1  0
 18 80  1  0
 20 81  1  0
 22 82  1  0
 23 83  1  0
 24 84  1  0
 25 85  1  0
 28 86  1  0
 30 87  1  0
 32 88  1  0
 34 89  1  0
 35 90  1  0
 36 91  1  0
 37 92  1  0
 39 93  1  0
 41 94  1  0
 43 95  1  0
 46 96  1  0
 47 97  1  0
 48 98  1  0
 50 99  1  0
 52100  1  0
 54101  1  0
 56102  1  0
 58103  1  0
 59104  1  0
 60105  1  0
 61106  1  0
 63107  1  0
 65108  1  0
 67109  1  0
 69110  1  0
M  END
