
     RDKit          3D

110125  0  0  0  0  0  0  0  0999 V2000
   -1.3177   -2.9498    4.1063 C   0  0  0  0  0  0  0  0  0  0  0  0
   -1.7291   -1.6872    3.7091 C   0  0  0  0  0  0  0  0  0  0  0  0
   -0.9786   -0.9771    2.7693 C   0  0  0  0  0  0  0  0  0  0  0  0
    0.1946   -1.5098    2.1813 C   0  0  0  0  0  0  0  0  0  0  0  0
    0.6125   -2.7832    2.6278 C   0  0  0  0  0  0  0  0  0  0  0  0
   -0.1495   -3.4901    3.5749 C   0  0  0  0  0  0  0  0  0  0  0  0
    1.7896   -3.3455    2.1228 C   0  0  0  0  0  0  0  0  0  0  0  0
    2.5960   -2.6682    1.2015 C   0  0  0  0  0  0  0  0  0  0  0  0
    3.7875   -3.2617    0.7467 C   0  0  0  0  0  0  0  0  0  0  0  0
    4.6340   -2.6156   -0.1661 C   0  0  0  0  0  0  0  0  0  0  0  0
    5.8194   -3.2139   -0.6275 C   0  0  0  0  0  0  0  0  0  0  0  0
    6.6629   -2.5600   -1.5413 C   0  0  0  0  0  0  0  0  0  0  0  0
    7.8461   -3.1592   -2.0060 C   0  0  0  0  0  0  0  0  0  0  0  0
    8.6879   -2.5053   -2.9207 C   0  0  0  0  0  0  0  0  0  0  0  0
    9.8699   -3.1045   -3.3864 C   0  0  0  0  0  0  0  0  0  0  0  0
   10.6960   -2.4420   -4.2954 C   0  0  0  0  0  0  0  0  0  0  0  0
   10.3519   -1.1728   -4.7499 C   0  0  0  0  0  0  0  0  0  0  0  0
    9.1805   -0.5643   -4.2964 C   0  0  0  0  0  0  0  0  0  0  0  0
    8.3382   -1.2183   -3.3818 C   0  0  0  0  0  0  0  0  0  0  0  0
    7.1557   -0.6199   -2.9157 C   0  0  0  0  0  0  0  0  0  0  0  0
    6.3137   -1.2756   -2.0014 C   0  0  0  0  0  0  0  0  0  0  0  0
    5.1297   -0.6792   -1.5363 C   0  0  0  0  0  0  0  0  0  0  0  0
    4.2851   -1.3374   -0.6257 C   0  0  0  0  0  0  0  0  0  0  0  0
    3.0926   -0.7494   -0.1677 C   0  0  0  0  0  0  0  0  0  0  0  0
    2.2080   -1.3969    0.7320 C   0  0  0  0  0  0  0  0  0  0  0  0
    0.9650   -0.8366    1.1791 C   0  0  0  0  0  0  0  0  0  0  0  0
    0.4656    0.4307    0.5739 C   0  0  0  0  0  0  0  0  0  0  0  0
    0.8899    1.6560    1.1247 C   0  0  0  0  0  0  0  0  0  0  0  0
    0.4853    2.8878    0.5864 C   0  0  0  0  0  0  0  0  0  0  0  0
    0.9109    4.1052    1.1431 C   0  0  0  0  0  0  0  0  0  0  0  0
    0.5080    5.3384    0.6037 C   0  0  0  0  0  0  0  0  0  0  0  0
    0.9315    6.5565    1.1619 C   0  0  0  0  0  0  0  0  0  0  0  0
    0.5281    7.7890    0.6222 C   0  0  0  0  0  0  0  0  0  0  0  0
    0.9502    9.0072    1.1800 C   0  0  0  0  0  0  0  0  0  0  0  0
    0.5405   10.2237    0.6319 C   0  0  0  0  0  0  0  0  0  0  0  0
   -0.2959   10.2381   -0.4798 C   0  0  0  0  0  0  0  0  0  0  0  0
   -0.7241    9.0362   -1.0453 C   0  0  0  0  0  0  0  0  0  0  0  0
   -0.3204    7.8039   -0.5052 C   0  0  0  0  0  0  0  0  0  0  0  0
   -0.7431    6.5859   -1.0624 C   0  0  0  0  0  0  0  0  0  0  0  0
   -0.3397    5.3536   -0.5212 C   0  0  0  0  0  0  0  0  0  0  0  0
   -0.7651    4.1358   -1.0774 C   0  0  0  0  0  0  0  0  0  0  0  0
   -0.3639    2.9038   -0.5362 C   0  0  0  0  0  0  0  0  0  0  0  0
   -0.7977    1.6888   -1.0884 C   0  0  0  0  0  0  0  0  0  0  0  0
   -0.4079    0.4478   -0.5479 C   0  0  0  0  0  0  0  0  0  0  0  0
   -0.9501   -0.7989   -1.1577 C   0  0  0  0  0  0  0  0  0  0  0  0
   -2.2124   -1.3158   -0.7126 C   0  0  0  0  0  0  0  0  0  0  0  0
   -3.0800   -0.6337    0.1786 C   0  0  0  0  0  0  0  0  0  0  0  0
   -4.2986   -1.1747    0.6260 C   0  0  0  0  0  0  0  0  0  0  0  0
   -5.1321   -0.4772    1.5175 C   0  0  0  0  0  0  0  0  0  0  0  0
   -6.3470   -1.0226    1.9652 C   0  0  0  0  0  0  0  0  0  0  0  0
   -7.1812   -0.3246    2.8551 C   0  0  0  0  0  0  0  0  0  0  0  0
   -8.3969   -0.8701    3.3004 C   0  0  0  0  0  0  0  0  0  0  0  0
   -9.2329   -0.1729    4.1887 C   0  0  0  0  0  0  0  0  0  0  0  0
  -10.4376   -0.7291    4.6214 C   0  0  0  0  0  0  0  0  0  0  0  0
  -10.8222   -1.9884    4.1720 C   0  0  0  0  0  0  0  0  0  0  0  0
  -10.0028   -2.6934    3.2891 C   0  0  0  0  0  0  0  0  0  0  0  0
   -8.7875   -2.1471    2.8445 C   0  0  0  0  0  0  0  0  0  0  0  0
   -7.9525   -2.8441    1.9555 C   0  0  0  0  0  0  0  0  0  0  0  0
   -6.7370   -2.2970    1.5102 C   0  0  0  0  0  0  0  0  0  0  0  0
   -5.9020   -2.9924    0.6192 C   0  0  0  0  0  0  0  0  0  0  0  0
   -4.6873   -2.4433    0.1722 C   0  0  0  0  0  0  0  0  0  0  0  0
   -3.8523   -3.1269   -0.7241 C   0  0  0  0  0  0  0  0  0  0  0  0
   -2.6402   -2.5753   -1.1782 C   0  0  0  0  0  0  0  0  0  0  0  0
   -1.8558   -3.2791   -2.0992 C   0  0  0  0  0  0  0  0  0  0  0  0
   -0.6661   -2.7511   -2.6131 C   0  0  0  0  0  0  0  0  0  0  0  0
    0.0642   -3.4740   -3.5734 C   0  0  0  0  0  0  0  0  0  0  0  0
    1.2414   -2.9649   -4.1162 C   0  0  0  0  0  0  0  0  0  0  0  0
    1.6962   -1.7189   -3.7138 C   0  0  0  0  0  0  0  0  0  0  0  0
    0.9781   -0.9933   -2.7603 C   0  0  0  0  0  0  0  0  0  0  0  0
   -0.2060   -1.4930   -2.1652 C   0  0  0  0  0  0  0  0  0  0  0  0
   -1.9039   -3.5144    4.8255 H   0  0  0  0  0  0  0  0  0  0  0  0
   -2.6387   -1.2546    4.1168 H   0  0  0  0  0  0  0  0  0  0  0  0
   -1.3291    0.0141    2.4928 H   0  0  0  0  0  0  0  0  0  0  0  0
    0.1615   -4.4797    3.9031 H   0  0  0  0  0  0  0  0  0  0  0  0
    2.0952   -4.3314    2.4702 H   0  0  0  0  0  0  0  0  0  0  0  0
    4.0615   -4.2508    1.1102 H   0  0  0  0  0  0  0  0  0  0  0  0
    6.0881   -4.2066   -0.2708 H   0  0  0  0  0  0  0  0  0  0  0  0
    8.1163   -4.1518   -1.6504 H   0  0  0  0  0  0  0  0  0  0  0  0
   10.1565   -4.0959   -3.0427 H   0  0  0  0  0  0  0  0  0  0  0  0
   11.6077   -2.9176   -4.6472 H   0  0  0  0  0  0  0  0  0  0  0  0
   10.9947   -0.6550   -5.4571 H   0  0  0  0  0  0  0  0  0  0  0  0
    8.9291    0.4282   -4.6637 H   0  0  0  0  0  0  0  0  0  0  0  0
    6.8867    0.3732   -3.2711 H   0  0  0  0  0  0  0  0  0  0  0  0
    4.8575    0.3130   -1.8918 H   0  0  0  0  0  0  0  0  0  0  0  0
    2.8451    0.2453   -0.5334 H   0  0  0  0  0  0  0  0  0  0  0  0
    1.5536    1.6382    1.9889 H   0  0  0  0  0  0  0  0  0  0  0  0
    1.5660    4.0930    2.0128 H   0  0  0  0  0  0  0  0  0  0  0  0
    1.5860    6.5461    2.0316 H   0  0  0  0  0  0  0  0  0  0  0  0
    1.6039    9.0178    2.0494 H   0  0  0  0  0  0  0  0  0  0  0  0
    0.8750   11.1585    1.0739 H   0  0  0  0  0  0  0  0  0  0  0  0
   -0.6161   11.1844   -0.9082 H   0  0  0  0  0  0  0  0  0  0  0  0
   -1.3778    9.0690   -1.9141 H   0  0  0  0  0  0  0  0  0  0  0  0
   -1.3979    6.5976   -1.9319 H   0  0  0  0  0  0  0  0  0  0  0  0
   -1.4216    4.1476   -1.9460 H   0  0  0  0  0  0  0  0  0  0  0  0
   -1.4632    1.6964   -1.9515 H   0  0  0  0  0  0  0  0  0  0  0  0
   -2.8011    0.3542    0.5405 H   0  0  0  0  0  0  0  0  0  0  0  0
   -4.8283    0.5077    1.8682 H   0  0  0  0  0  0  0  0  0  0  0  0
   -6.8807    0.6606    3.2068 H   0  0  0  0  0  0  0  0  0  0  0  0
   -8.9502    0.8129    4.5514 H   0  0  0  0  0  0  0  0  0  0  0  0
  -11.0742   -0.1782    5.3088 H   0  0  0  0  0  0  0  0  0  0  0  0
  -11.7600   -2.4235    4.5076 H   0  0  0  0  0  0  0  0  0  0  0  0
  -10.3211   -3.6763    2.9490 H   0  0  0  0  0  0  0  0  0  0  0  0
   -8.2544   -3.8291    1.6044 H   0  0  0  0  0  0  0  0  0  0  0  0
   -6.2022   -3.9774    0.2663 H   0  0  0  0  0  0  0  0  0  0  0  0
   -4.1538   -4.1109   -1.0790 H   0  0  0  0  0  0  0  0  0  0  0  0
   -2.1927   -4.2556   -2.4441 H   0  0  0  0  0  0  0  0  0  0  0  0
   -0.2829   -4.4494   -3.9082 H   0  0  0  0  0  0  0  0  0  0  0  0
    1.7986   -3.5386   -4.8516 H   0  0  0  0  0  0  0  0  0  0  0  0
    2.6123   -1.3099   -4.1313 H   0  0  0  0  0  0  0  0  0  0  0  0
    1.3609   -0.0147   -2.4819 H   0  0  0  0  0  0  0  0  0  0  0  0
  1  2  4  0
  2  3  4  0
  3  4  4  0
  4  5  4  0
  5  6  4  0
  5  7  4  0
  7  8  4  0
  8  9  4  0
  9 10  4  0
 10 11  4  0
 11 12  4  0
 12 13  4  0
 13 14  4  0
 14 15  4  0
 15 16  4  0
 16 17  4  0
 17 18  4  0
 18 19  4  0
 19 20  4  0
 20 21  4  0
 21 22  4  0
 22 23  4  0
 23 24  4  0
 24 25  4  0
 25 26  4  0
 26 27  1  0
 27 28  4  0
 28 29  4  0
 29 30  4  0
 30 31  4  0
 31 32  4  0
 32 33  4  0
 33 34  4  0
 34 35  4  0
 35 36  4  0
 36 37  4  0
 37 38  4  0
 38 39  4  0
 39 40  4  0
 40 41  4  0
 41 42  4  0
 42 43  4  0
 43 44  4  0
 44 45  1  0
 45 46  4  0
 46 47  4  0
 47 48  4  0
 48 49  4  0
 49 50  4  0
 50 51  4  0
 51 52  4  0
 52 53  4  0
 53 54  4  0
 54 55  4  0
 55 56  4  0
 56 57  4  0
 57 58  4  0
 58 59  4  0
 59 60  4  0
 60 61  4  0
 61 62  4  0
 62 63  4  0
 63 64  4  0
 64 65  4  0
 65 66  4  0
 66 67  4  0
 67 68  4  0
 68 69  4  0
 69 70  4  0
  6  1  4  0
 25  8  4  0
 44 27  4  0
 70 45  4  0
 26  4  4  0
 42 29  4  0
 63 46  4  0
 70 65  4  0
 23 10  4  0
 40 31  4  0
 61 48  4  0
 21 12  4  0
 38 33  4  0
 59 50  4  0
 19 14  4  0
 57 52  4  0
  1 71  1  0
  2 72  1  0
  3 73  1  0
  6 74  1  0
  7 75  1  0
  9 76  1  0
 11 77  1  0
 13 78  1  0
 15 79  1  0
 16 80  1  0
 17 81  1  0
 18 82  1  0
 20 83  1  0
 22 84  1  0
 24 85  1  0
 28 86  1  0
 30 87  1  0
 32 88  1  0
 34 89  1  0
 35 90  1  0
 36 91  1  0
 37 92  1  0
 39 93  1  0
 41 94  1  0
 43 95  1  0
 47 96  1  0
 49 97  1  0
 51 98  1  0
 53 99  1  0
 54100  1  0
 55101  1  0
 56102  1  0
 58103  1  0
 60104  1  0
 62105  1  0
 64106  1  0
 66107  1  0
 67108  1  0
 68109  1  0
 69110  1  0
M  END
