
     RDKit          3D

 86 97  0  0  0  0  0  0  0  0999 V2000
   -9.1527   -3.0565   -0.6816 C   0  0  0  0  0  0  0  0  0  0  0  0
   -8.1796   -3.5980    0.1599 C   0  0  0  0  0  0  0  0  0  0  0  0
   -6.9073   -3.0108    0.2585 C   0  0  0  0  0  0  0  0  0  0  0  0
   -5.9165   -3.5426    1.1005 C   0  0  0  0  0  0  0  0  0  0  0  0
   -4.6438   -2.9543    1.1972 C   0  0  0  0  0  0  0  0  0  0  0  0
   -3.6516   -3.4834    2.0372 C   0  0  0  0  0  0  0  0  0  0  0  0
   -2.3765   -2.9008    2.1336 C   0  0  0  0  0  0  0  0  0  0  0  0
   -1.4093   -3.4604    2.9821 C   0  0  0  0  0  0  0  0  0  0  0  0
   -0.1404   -2.9000    3.0887 C   0  0  0  0  0  0  0  0  0  0  0  0
    0.1794   -1.7703    2.3445 C   0  0  0  0  0  0  0  0  0  0  0  0
   -0.7611   -1.1836    1.4781 C   0  0  0  0  0  0  0  0  0  0  0  0
   -0.3543    0.0085    0.7054 C   0  0  0  0  0  0  0  0  0  0  0  0
   -0.6695    1.2842    1.2125 C   0  0  0  0  0  0  0  0  0  0  0  0
   -0.3230    2.4586    0.5263 C   0  0  0  0  0  0  0  0  0  0  0  0
   -0.6445    3.7273    1.0360 C   0  0  0  0  0  0  0  0  0  0  0  0
   -0.2969    4.9023    0.3488 C   0  0  0  0  0  0  0  0  0  0  0  0
   -0.6183    6.1718    0.8584 C   0  0  0  0  0  0  0  0  0  0  0  0
   -0.2690    7.3462    0.1717 C   0  0  0  0  0  0  0  0  0  0  0  0
   -0.5891    8.6158    0.6805 C   0  0  0  0  0  0  0  0  0  0  0  0
   -0.2349    9.7734   -0.0141 C   0  0  0  0  0  0  0  0  0  0  0  0
    0.4431    9.6768   -1.2252 C   0  0  0  0  0  0  0  0  0  0  0  0
    0.7681    8.4225   -1.7438 C   0  0  0  0  0  0  0  0  0  0  0  0
    0.4189    7.2484   -1.0566 C   0  0  0  0  0  0  0  0  0  0  0  0
    0.7392    5.9790   -1.5653 C   0  0  0  0  0  0  0  0  0  0  0  0
    0.3892    4.8049   -0.8777 C   0  0  0  0  0  0  0  0  0  0  0  0
    0.7091    3.5354   -1.3871 C   0  0  0  0  0  0  0  0  0  0  0  0
    0.3605    2.3616   -0.6997 C   0  0  0  0  0  0  0  0  0  0  0  0
    0.6811    1.0933   -1.2082 C   0  0  0  0  0  0  0  0  0  0  0  0
    0.3396   -0.0886   -0.5227 C   0  0  0  0  0  0  0  0  0  0  0  0
    0.7208   -1.3884   -1.1148 C   0  0  0  0  0  0  0  0  0  0  0  0
    2.0177   -1.9542   -0.9364 C   0  0  0  0  0  0  0  0  0  0  0  0
    3.0450   -1.3336   -0.1853 C   0  0  0  0  0  0  0  0  0  0  0  0
    4.3142   -1.9139   -0.0183 C   0  0  0  0  0  0  0  0  0  0  0  0
    5.3181   -1.2804    0.7340 C   0  0  0  0  0  0  0  0  0  0  0  0
    6.5864   -1.8608    0.8990 C   0  0  0  0  0  0  0  0  0  0  0  0
    7.5911   -1.2281    1.6500 C   0  0  0  0  0  0  0  0  0  0  0  0
    8.8466   -1.8182    1.8033 C   0  0  0  0  0  0  0  0  0  0  0  0
    9.1132   -3.0474    1.2082 C   0  0  0  0  0  0  0  0  0  0  0  0
    8.1251   -3.6885    0.4595 C   0  0  0  0  0  0  0  0  0  0  0  0
    6.8568   -3.1074    0.2961 C   0  0  0  0  0  0  0  0  0  0  0  0
    5.8515   -3.7393   -0.4543 C   0  0  0  0  0  0  0  0  0  0  0  0
    4.5834   -3.1559   -0.6178 C   0  0  0  0  0  0  0  0  0  0  0  0
    3.5764   -3.7846   -1.3665 C   0  0  0  0  0  0  0  0  0  0  0  0
    2.3070   -3.2050   -1.5319 C   0  0  0  0  0  0  0  0  0  0  0  0
    1.3246   -3.8655   -2.2848 C   0  0  0  0  0  0  0  0  0  0  0  0
    0.0618   -3.3083   -2.4595 C   0  0  0  0  0  0  0  0  0  0  0  0
   -0.2351   -2.0789   -1.8821 C   0  0  0  0  0  0  0  0  0  0  0  0
   -2.0657   -1.7499    1.3714 C   0  0  0  0  0  0  0  0  0  0  0  0
   -3.0796   -1.2265    0.5328 C   0  0  0  0  0  0  0  0  0  0  0  0
   -4.3547   -1.8097    0.4353 C   0  0  0  0  0  0  0  0  0  0  0  0
   -5.3447   -1.2751   -0.4071 C   0  0  0  0  0  0  0  0  0  0  0  0
   -6.6175   -1.8607   -0.5055 C   0  0  0  0  0  0  0  0  0  0  0  0
   -7.6076   -1.3273   -1.3476 C   0  0  0  0  0  0  0  0  0  0  0  0
   -8.8672   -1.9218   -1.4346 C   0  0  0  0  0  0  0  0  0  0  0  0
  -10.1327   -3.5215   -0.7478 H   0  0  0  0  0  0  0  0  0  0  0  0
   -8.4226   -4.4853    0.7404 H   0  0  0  0  0  0  0  0  0  0  0  0
   -6.1393   -4.4298    1.6902 H   0  0  0  0  0  0  0  0  0  0  0  0
   -3.8762   -4.3704    2.6274 H   0  0  0  0  0  0  0  0  0  0  0  0
   -1.6378   -4.3474    3.5692 H   0  0  0  0  0  0  0  0  0  0  0  0
    0.6017   -3.3465    3.7450 H   0  0  0  0  0  0  0  0  0  0  0  0
    1.1783   -1.3473    2.4315 H   0  0  0  0  0  0  0  0  0  0  0  0
   -1.2012    1.3532    2.1613 H   0  0  0  0  0  0  0  0  0  0  0  0
   -1.1750    3.8012    1.9839 H   0  0  0  0  0  0  0  0  0  0  0  0
   -1.1493    6.2475    1.8057 H   0  0  0  0  0  0  0  0  0  0  0  0
   -1.1188    8.7129    1.6256 H   0  0  0  0  0  0  0  0  0  0  0  0
   -0.4890   10.7492    0.3915 H   0  0  0  0  0  0  0  0  0  0  0  0
    0.7196   10.5770   -1.7677 H   0  0  0  0  0  0  0  0  0  0  0  0
    1.2976    8.3687   -2.6925 H   0  0  0  0  0  0  0  0  0  0  0  0
    1.2702    5.9039   -2.5126 H   0  0  0  0  0  0  0  0  0  0  0  0
    1.2401    3.4593   -2.3346 H   0  0  0  0  0  0  0  0  0  0  0  0
    1.2133    1.0130   -2.1558 H   0  0  0  0  0  0  0  0  0  0  0  0
    2.8528   -0.3718    0.2875 H   0  0  0  0  0  0  0  0  0  0  0  0
    5.1085   -0.3183    1.1982 H   0  0  0  0  0  0  0  0  0  0  0  0
    7.4009   -0.2668    2.1223 H   0  0  0  0  0  0  0  0  0  0  0  0
    9.6152   -1.3178    2.3866 H   0  0  0  0  0  0  0  0  0  0  0  0
   10.0903   -3.5085    1.3256 H   0  0  0  0  0  0  0  0  0  0  0  0
    8.3532   -4.6487    0.0022 H   0  0  0  0  0  0  0  0  0  0  0  0
    6.0599   -4.7012   -0.9190 H   0  0  0  0  0  0  0  0  0  0  0  0
    3.7853   -4.7477   -1.8295 H   0  0  0  0  0  0  0  0  0  0  0  0
    1.5366   -4.8295   -2.7427 H   0  0  0  0  0  0  0  0  0  0  0  0
   -0.6928   -3.8326   -3.0397 H   0  0  0  0  0  0  0  0  0  0  0  0
   -1.2284   -1.6574   -2.0231 H   0  0  0  0  0  0  0  0  0  0  0  0
   -2.8716   -0.3414   -0.0665 H   0  0  0  0  0  0  0  0  0  0  0  0
   -5.1204   -0.3875   -0.9962 H   0  0  0  0  0  0  0  0  0  0  0  0
   -7.4019   -0.4412   -1.9441 H   0  0  0  0  0  0  0  0  0  0  0  0
   -9.6240   -1.4986   -2.0900 H   0  0  0  0  0  0  0  0  0  0  0  0
  1  2  4  0
  2  3  4  0
  3  4  4  0
  4  5  4  0
  5  6  4  0
  6  7  4  0
  7  8  4  0
  8  9  4  0
  9 10  4  0
 10 11  4  0
 11 12  1  0
 12 13  4  0
 13 14  4  0
 14 15  4  0
 15 16  4  0
 16 17  4  0
 17 18  4  0
 18 19  4  0
 19 20  4  0
 20 21  4  0
 21 22  4  0
 22 23  4  0
 23 24  4  0
 24 25  4  0
 25 26  4  0
 26 27  4  0
 27 28  4  0
 28 29  4  0
 29 30  1  0
 30 31  4  0
 31 32  4  0
 32 33  4  0
 33 34  4  0
 34 35  4  0
 35 36  4  0
 36 37  4  0
 37 38  4  0
 38 39  4  0
 39 40  4  0
 40 41  4  0
 41 42  4  0
 42 43  4  0
 43 44  4  0
 44 45  4  0
 45 46  4  0
 46 47  4  0
 11 48  4  0
 48 49  4  0
 49 50  4  0
 50 51  4  0
 51 52  4  0
 52 53  4  0
 53 54  4  0
 54  1  4  0
 52  3  4  0
 50  5  4  0
 48  7  4  0
 29 12  4  0
 47 30  4  0
 27 14  4  0
 44 31  4  0
 25 16  4  0
 42 33  4  0
 23 18  4  0
 40 35  4  0
  1 55  1  0
  2 56  1  0
  4 57  1  0
  6 58  1  0
  8 59  1  0
  9 60  1  0
 10 61  1  0
 13 62  1  0
 15 63  1  0
 17 64  1  0
 19 65  1  0
 20 66  1  0
 21 67  1  0
 22 68  1  0
 24 69  1  0
 26 70  1  0
 28 71  1  0
 32 72  1  0
 34 73  1  0
 36 74  1  0
 37 75  1  0
 38 76  1  0
 39 77  1  0
 41 78  1  0
 43 79  1  0
 45 80  1  0
 46 81  1  0
 47 82  1  0
 49 83  1  0
 51 84  1  0
 53 85  1  0
 54 86  1  0
M  END
