
     RDKit          3D

 86 97  0  0  0  0  0  0  0  0999 V2000
   -5.9837   -7.7086    0.9030 C   0  0  0  0  0  0  0  0  0  0  0  0
   -5.2502   -7.0932   -0.1125 C   0  0  0  0  0  0  0  0  0  0  0  0
   -4.7171   -5.8056    0.0647 C   0  0  0  0  0  0  0  0  0  0  0  0
   -3.9763   -5.1729   -0.9473 C   0  0  0  0  0  0  0  0  0  0  0  0
   -3.4432   -3.8849   -0.7692 C   0  0  0  0  0  0  0  0  0  0  0  0
   -2.7006   -3.2527   -1.7808 C   0  0  0  0  0  0  0  0  0  0  0  0
   -2.1662   -1.9659   -1.6017 C   0  0  0  0  0  0  0  0  0  0  0  0
   -1.4203   -1.3358   -2.6087 C   0  0  0  0  0  0  0  0  0  0  0  0
   -0.8873   -0.0592   -2.4111 C   0  0  0  0  0  0  0  0  0  0  0  0
   -1.0835    0.6200   -1.2026 C   0  0  0  0  0  0  0  0  0  0  0  0
   -0.5034    1.9562   -0.9740 C   0  0  0  0  0  0  0  0  0  0  0  0
   -1.3772    3.0585   -0.8749 C   0  0  0  0  0  0  0  0  0  0  0  0
   -0.9083    4.3631   -0.6544 C   0  0  0  0  0  0  0  0  0  0  0  0
   -1.7893    5.4530   -0.5554 C   0  0  0  0  0  0  0  0  0  0  0  0
   -1.3189    6.7572   -0.3288 C   0  0  0  0  0  0  0  0  0  0  0  0
   -2.2002    7.8470   -0.2273 C   0  0  0  0  0  0  0  0  0  0  0  0
   -1.7295    9.1504    0.0014 C   0  0  0  0  0  0  0  0  0  0  0  0
   -2.6098   10.2403    0.1037 C   0  0  0  0  0  0  0  0  0  0  0  0
   -2.1263   11.5295    0.3318 C   0  0  0  0  0  0  0  0  0  0  0  0
   -0.7579   11.7457    0.4601 C   0  0  0  0  0  0  0  0  0  0  0  0
    0.1295   10.6731    0.3605 C   0  0  0  0  0  0  0  0  0  0  0  0
   -0.3416    9.3697    0.1314 C   0  0  0  0  0  0  0  0  0  0  0  0
    0.5384    8.2797    0.0289 C   0  0  0  0  0  0  0  0  0  0  0  0
    0.0664    6.9761   -0.1996 C   0  0  0  0  0  0  0  0  0  0  0  0
    0.9464    5.8854   -0.3017 C   0  0  0  0  0  0  0  0  0  0  0  0
    0.4746    4.5815   -0.5283 C   0  0  0  0  0  0  0  0  0  0  0  0
    1.3520    3.4895   -0.6293 C   0  0  0  0  0  0  0  0  0  0  0  0
    0.8906    2.1750   -0.8501 C   0  0  0  0  0  0  0  0  0  0  0  0
    1.8816    1.0835   -0.9300 C   0  0  0  0  0  0  0  0  0  0  0  0
    2.8307    1.0519   -1.9609 C   0  0  0  0  0  0  0  0  0  0  0  0
    3.7631    0.0138   -2.0461 C   0  0  0  0  0  0  0  0  0  0  0  0
    3.7691   -1.0242   -1.1027 C   0  0  0  0  0  0  0  0  0  0  0  0
    4.6925   -2.0803   -1.1776 C   0  0  0  0  0  0  0  0  0  0  0  0
    4.6908   -3.1231   -0.2355 C   0  0  0  0  0  0  0  0  0  0  0  0
    5.6131   -4.1807   -0.3107 C   0  0  0  0  0  0  0  0  0  0  0  0
    5.6085   -5.2250    0.6289 C   0  0  0  0  0  0  0  0  0  0  0  0
    6.5298   -6.2828    0.5541 C   0  0  0  0  0  0  0  0  0  0  0  0
    6.5121   -7.3136    1.4950 C   0  0  0  0  0  0  0  0  0  0  0  0
    5.5735   -7.3005    2.5221 C   0  0  0  0  0  0  0  0  0  0  0  0
    4.6513   -6.2565    2.6097 C   0  0  0  0  0  0  0  0  0  0  0  0
    4.6567   -5.2117    1.6706 C   0  0  0  0  0  0  0  0  0  0  0  0
    3.7355   -4.1539    1.7452 C   0  0  0  0  0  0  0  0  0  0  0  0
    3.7420   -3.1092    0.8057 C   0  0  0  0  0  0  0  0  0  0  0  0
    2.8210   -2.0513    0.8824 C   0  0  0  0  0  0  0  0  0  0  0  0
    2.8243   -1.0078   -0.0574 C   0  0  0  0  0  0  0  0  0  0  0  0
    1.9014    0.0496    0.0206 C   0  0  0  0  0  0  0  0  0  0  0  0
   -1.8427   -0.0078   -0.2005 C   0  0  0  0  0  0  0  0  0  0  0  0
   -2.3812   -1.2935   -0.3819 C   0  0  0  0  0  0  0  0  0  0  0  0
   -3.1236   -1.9256    0.6289 C   0  0  0  0  0  0  0  0  0  0  0  0
   -3.6565   -3.2133    0.4506 C   0  0  0  0  0  0  0  0  0  0  0  0
   -4.3968   -3.8453    1.4636 C   0  0  0  0  0  0  0  0  0  0  0  0
   -4.9301   -5.1328    1.2867 C   0  0  0  0  0  0  0  0  0  0  0  0
   -5.6705   -5.7655    2.2991 C   0  0  0  0  0  0  0  0  0  0  0  0
   -6.1937   -7.0452    2.1079 C   0  0  0  0  0  0  0  0  0  0  0  0
   -6.3901   -8.7053    0.7521 H   0  0  0  0  0  0  0  0  0  0  0  0
   -5.0966   -7.6280   -1.0471 H   0  0  0  0  0  0  0  0  0  0  0  0
   -3.8108   -5.6924   -1.8894 H   0  0  0  0  0  0  0  0  0  0  0  0
   -2.5329   -3.7718   -2.7228 H   0  0  0  0  0  0  0  0  0  0  0  0
   -1.2394   -1.8375   -3.5567 H   0  0  0  0  0  0  0  0  0  0  0  0
   -0.3050    0.3998   -3.2074 H   0  0  0  0  0  0  0  0  0  0  0  0
   -2.4487    2.8886   -0.9795 H   0  0  0  0  0  0  0  0  0  0  0  0
   -2.8600    5.2827   -0.6549 H   0  0  0  0  0  0  0  0  0  0  0  0
   -3.2709    7.6780   -0.3276 H   0  0  0  0  0  0  0  0  0  0  0  0
   -3.6829   10.0921    0.0060 H   0  0  0  0  0  0  0  0  0  0  0  0
   -2.8190   12.3635    0.4089 H   0  0  0  0  0  0  0  0  0  0  0  0
   -0.3794   12.7489    0.6377 H   0  0  0  0  0  0  0  0  0  0  0  0
    1.1956   10.8625    0.4634 H   0  0  0  0  0  0  0  0  0  0  0  0
    1.6090    8.4487    0.1293 H   0  0  0  0  0  0  0  0  0  0  0  0
    2.0172    6.0543   -0.2019 H   0  0  0  0  0  0  0  0  0  0  0  0
    2.4234    3.6575   -0.5210 H   0  0  0  0  0  0  0  0  0  0  0  0
    2.8426    1.8348   -2.7166 H   0  0  0  0  0  0  0  0  0  0  0  0
    4.4819    0.0198   -2.8624 H   0  0  0  0  0  0  0  0  0  0  0  0
    5.4231   -2.0923   -1.9843 H   0  0  0  0  0  0  0  0  0  0  0  0
    6.3466   -4.1921   -1.1148 H   0  0  0  0  0  0  0  0  0  0  0  0
    7.2711   -6.3111   -0.2415 H   0  0  0  0  0  0  0  0  0  0  0  0
    7.2311   -8.1255    1.4247 H   0  0  0  0  0  0  0  0  0  0  0  0
    5.5577   -8.1022    3.2558 H   0  0  0  0  0  0  0  0  0  0  0  0
    3.9253   -6.2639    3.4197 H   0  0  0  0  0  0  0  0  0  0  0  0
    2.9999   -4.1440    2.5475 H   0  0  0  0  0  0  0  0  0  0  0  0
    2.0844   -2.0422    1.6841 H   0  0  0  0  0  0  0  0  0  0  0  0
    1.1759    0.0648    0.8323 H   0  0  0  0  0  0  0  0  0  0  0  0
   -1.9994    0.5112    0.7441 H   0  0  0  0  0  0  0  0  0  0  0  0
   -3.2885   -1.4072    1.5718 H   0  0  0  0  0  0  0  0  0  0  0  0
   -4.5606   -3.3267    2.4065 H   0  0  0  0  0  0  0  0  0  0  0  0
   -5.8452   -5.2634    3.2481 H   0  0  0  0  0  0  0  0  0  0  0  0
   -6.7643   -7.5227    2.9001 H   0  0  0  0  0  0  0  0  0  0  0  0
  1  2  4  0
  2  3  4  0
  3  4  4  0
  4  5  4  0
  5  6  4  0
  6  7  4  0
  7  8  4  0
  8  9  4  0
  9 10  4  0
 10 11  1  0
 11 12  4  0
 12 13  4  0
 13 14  4  0
 14 15  4  0
 15 16  4  0
 16 17  4  0
 17 18  4  0
 18 19  4  0
 19 20  4  0
 20 21  4  0
 21 22  4  0
 22 23  4  0
 23 24  4  0
 24 25  4  0
 25 26  4  0
 26 27  4  0
 27 28  4  0
 28 29  1  0
 29 30  4  0
 30 31  4  0
 31 32  4  0
 32 33  4  0
 33 34  4  0
 34 35  4  0
 35 36  4  0
 36 37  4  0
 37 38  4  0
 38 39  4  0
 39 40  4  0
 40 41  4  0
 41 42  4  0
 42 43  4  0
 43 44  4  0
 44 45  4  0
 45 46  4  0
 10 47  4  0
 47 48  4  0
 48 49  4  0
 49 50  4  0
 50 51  4  0
 51 52  4  0
 52 53  4  0
 53 54  4  0
 54  1  4  0
 52  3  4  0
 50  5  4  0
 48  7  4  0
 28 11  4  0
 46 29  4  0
 26 13  4  0
 45 32  4  0
 24 15  4  0
 43 34  4  0
 22 17  4  0
 41 36  4  0
  1 55  1  0
  2 56  1  0
  4 57  1  0
  6 58  1  0
  8 59  1  0
  9 60  1  0
 12 61  1  0
 14 62  1  0
 16 63  1  0
 18 64  1  0
 19 65  1  0
 20 66  1  0
 21 67  1  0
 23 68  1  0
 25 69  1  0
 27 70  1  0
 30 71  1  0
 31 72  1  0
 33 73  1  0
 35 74  1  0
 37 75  1  0
 38 76  1  0
 39 77  1  0
 40 78  1  0
 42 79  1  0
 44 80  1  0
 46 81  1  0
 47 82  1  0
 49 83  1  0
 51 84  1  0
 53 85  1  0
 54 86  1  0
M  END
