
     RDKit          3D

 98111  0  0  0  0  0  0  0  0999 V2000
   -6.9300   -3.8311   -5.3641 C   0  0  0  0  0  0  0  0  0  0  0  0
   -6.7846   -2.4629   -5.5715 C   0  0  0  0  0  0  0  0  0  0  0  0
   -5.8913   -1.7308   -4.7874 C   0  0  0  0  0  0  0  0  0  0  0  0
   -5.1334   -2.3582   -3.7845 C   0  0  0  0  0  0  0  0  0  0  0  0
   -4.2336   -1.6357   -2.9837 C   0  0  0  0  0  0  0  0  0  0  0  0
   -3.4820   -2.2641   -1.9755 C   0  0  0  0  0  0  0  0  0  0  0  0
   -2.5839   -1.5438   -1.1683 C   0  0  0  0  0  0  0  0  0  0  0  0
   -1.8112   -2.1460   -0.1417 C   0  0  0  0  0  0  0  0  0  0  0  0
   -1.9962   -3.5280    0.0651 C   0  0  0  0  0  0  0  0  0  0  0  0
   -2.8844   -4.2567   -0.7474 C   0  0  0  0  0  0  0  0  0  0  0  0
   -3.6300   -3.6430   -1.7649 C   0  0  0  0  0  0  0  0  0  0  0  0
   -4.5248   -4.3706   -2.5688 C   0  0  0  0  0  0  0  0  0  0  0  0
   -5.2811   -3.7454   -3.5742 C   0  0  0  0  0  0  0  0  0  0  0  0
   -6.1833   -4.4690   -4.3722 C   0  0  0  0  0  0  0  0  0  0  0  0
   -1.2961   -4.1773    1.0881 C   0  0  0  0  0  0  0  0  0  0  0  0
   -0.4436   -3.4852    1.9554 C   0  0  0  0  0  0  0  0  0  0  0  0
    0.2022   -4.1724    2.9987 C   0  0  0  0  0  0  0  0  0  0  0  0
    1.0338   -3.5047    3.8945 C   0  0  0  0  0  0  0  0  0  0  0  0
    1.2188   -2.1372    3.7654 C   0  0  0  0  0  0  0  0  0  0  0  0
    0.5834   -1.4466    2.7308 C   0  0  0  0  0  0  0  0  0  0  0  0
   -0.2414   -2.0983    1.7821 C   0  0  0  0  0  0  0  0  0  0  0  0
   -0.8771   -1.4346    0.6845 C   0  0  0  0  0  0  0  0  0  0  0  0
   -0.5673   -0.0082    0.3845 C   0  0  0  0  0  0  0  0  0  0  0  0
   -1.4358    0.9858    0.8777 C   0  0  0  0  0  0  0  0  0  0  0  0
   -1.2482    2.3446    0.5826 C   0  0  0  0  0  0  0  0  0  0  0  0
   -2.1312    3.3244    1.0639 C   0  0  0  0  0  0  0  0  0  0  0  0
   -1.9534    4.6839    0.7586 C   0  0  0  0  0  0  0  0  0  0  0  0
   -2.8409    5.6631    1.2356 C   0  0  0  0  0  0  0  0  0  0  0  0
   -2.6668    7.0217    0.9261 C   0  0  0  0  0  0  0  0  0  0  0  0
   -3.5555    8.0006    1.4000 C   0  0  0  0  0  0  0  0  0  0  0  0
   -3.3701    9.3466    1.0818 C   0  0  0  0  0  0  0  0  0  0  0  0
   -2.2945    9.7312    0.2875 C   0  0  0  0  0  0  0  0  0  0  0  0
   -1.4023    8.7702   -0.1903 C   0  0  0  0  0  0  0  0  0  0  0  0
   -1.5757    7.4115    0.1204 C   0  0  0  0  0  0  0  0  0  0  0  0
   -0.6876    6.4319   -0.3538 C   0  0  0  0  0  0  0  0  0  0  0  0
   -0.8639    5.0725   -0.0453 C   0  0  0  0  0  0  0  0  0  0  0  0
    0.0211    4.0914   -0.5233 C   0  0  0  0  0  0  0  0  0  0  0  0
   -0.1593    2.7319   -0.2203 C   0  0  0  0  0  0  0  0  0  0  0  0
    0.7228    1.7516   -0.7011 C   0  0  0  0  0  0  0  0  0  0  0  0
    0.5461    0.3845   -0.4075 C   0  0  0  0  0  0  0  0  0  0  0  0
    1.5467   -0.5905   -0.9276 C   0  0  0  0  0  0  0  0  0  0  0  0
    1.3052   -1.2872   -2.1550 C   0  0  0  0  0  0  0  0  0  0  0  0
    0.2106   -1.0219   -3.0129 C   0  0  0  0  0  0  0  0  0  0  0  0
   -0.0144   -1.7536   -4.1811 C   0  0  0  0  0  0  0  0  0  0  0  0
    0.8642   -2.7635   -4.5407 C   0  0  0  0  0  0  0  0  0  0  0  0
    1.9699   -3.0298   -3.7375 C   0  0  0  0  0  0  0  0  0  0  0  0
    2.2032   -2.3007   -2.5580 C   0  0  0  0  0  0  0  0  0  0  0  0
    3.3312   -2.5805   -1.7795 C   0  0  0  0  0  0  0  0  0  0  0  0
    3.6225   -1.8613   -0.6152 C   0  0  0  0  0  0  0  0  0  0  0  0
    4.7853   -2.1598    0.1186 C   0  0  0  0  0  0  0  0  0  0  0  0
    5.1248   -1.4581    1.2847 C   0  0  0  0  0  0  0  0  0  0  0  0
    6.2808   -1.7653    2.0238 C   0  0  0  0  0  0  0  0  0  0  0  0
    6.6132   -1.0565    3.1902 C   0  0  0  0  0  0  0  0  0  0  0  0
    7.7655   -1.3633    3.9331 C   0  0  0  0  0  0  0  0  0  0  0  0
    8.0806   -0.6485    5.0898 C   0  0  0  0  0  0  0  0  0  0  0  0
    7.2489    0.3814    5.5184 C   0  0  0  0  0  0  0  0  0  0  0  0
    6.1006    0.6981    4.7911 C   0  0  0  0  0  0  0  0  0  0  0  0
    5.7700   -0.0123    3.6253 C   0  0  0  0  0  0  0  0  0  0  0  0
    4.6179    0.2930    2.8830 C   0  0  0  0  0  0  0  0  0  0  0  0
    4.2857   -0.4211    1.7190 C   0  0  0  0  0  0  0  0  0  0  0  0
    3.1262   -0.1264    0.9804 C   0  0  0  0  0  0  0  0  0  0  0  0
    2.7478   -0.8432   -0.1834 C   0  0  0  0  0  0  0  0  0  0  0  0
   -7.6244   -4.4034   -5.9736 H   0  0  0  0  0  0  0  0  0  0  0  0
   -7.3646   -1.9640   -6.3434 H   0  0  0  0  0  0  0  0  0  0  0  0
   -5.7916   -0.6621   -4.9637 H   0  0  0  0  0  0  0  0  0  0  0  0
   -4.1188   -0.5650   -3.1442 H   0  0  0  0  0  0  0  0  0  0  0  0
   -2.4897   -0.4744   -1.3479 H   0  0  0  0  0  0  0  0  0  0  0  0
   -3.0049   -5.3257   -0.5780 H   0  0  0  0  0  0  0  0  0  0  0  0
   -4.6373   -5.4407   -2.4059 H   0  0  0  0  0  0  0  0  0  0  0  0
   -6.3110   -5.5390   -4.2245 H   0  0  0  0  0  0  0  0  0  0  0  0
   -1.4386   -5.2476    1.2298 H   0  0  0  0  0  0  0  0  0  0  0  0
    0.0588   -5.2437    3.1223 H   0  0  0  0  0  0  0  0  0  0  0  0
    1.5299   -4.0509    4.6919 H   0  0  0  0  0  0  0  0  0  0  0  0
    1.8613   -1.6033    4.4605 H   0  0  0  0  0  0  0  0  0  0  0  0
    0.7410   -0.3727    2.6737 H   0  0  0  0  0  0  0  0  0  0  0  0
   -2.2836    0.6806    1.4910 H   0  0  0  0  0  0  0  0  0  0  0  0
   -2.9751    3.0226    1.6821 H   0  0  0  0  0  0  0  0  0  0  0  0
   -3.6827    5.3622    1.8569 H   0  0  0  0  0  0  0  0  0  0  0  0
   -4.4021    7.7206    2.0229 H   0  0  0  0  0  0  0  0  0  0  0  0
   -4.0658   10.0936    1.4551 H   0  0  0  0  0  0  0  0  0  0  0  0
   -2.1484   10.7791    0.0390 H   0  0  0  0  0  0  0  0  0  0  0  0
   -0.5677    9.0917   -0.8096 H   0  0  0  0  0  0  0  0  0  0  0  0
    0.1535    6.7339   -0.9755 H   0  0  0  0  0  0  0  0  0  0  0  0
    0.8630    4.3905   -1.1453 H   0  0  0  0  0  0  0  0  0  0  0  0
    1.5721    2.0480   -1.3167 H   0  0  0  0  0  0  0  0  0  0  0  0
   -0.4931   -0.2283   -2.7748 H   0  0  0  0  0  0  0  0  0  0  0  0
   -0.8812   -1.5361   -4.7991 H   0  0  0  0  0  0  0  0  0  0  0  0
    0.6922   -3.3420   -5.4440 H   0  0  0  0  0  0  0  0  0  0  0  0
    2.6527   -3.8209   -4.0395 H   0  0  0  0  0  0  0  0  0  0  0  0
    4.0111   -3.3691   -2.0994 H   0  0  0  0  0  0  0  0  0  0  0  0
    5.4406   -2.9588   -0.2247 H   0  0  0  0  0  0  0  0  0  0  0  0
    6.9307   -2.5705    1.6863 H   0  0  0  0  0  0  0  0  0  0  0  0
    8.4278   -2.1646    3.6134 H   0  0  0  0  0  0  0  0  0  0  0  0
    8.9757   -0.8964    5.6543 H   0  0  0  0  0  0  0  0  0  0  0  0
    7.4931    0.9397    6.4184 H   0  0  0  0  0  0  0  0  0  0  0  0
    5.4629    1.5069    5.1411 H   0  0  0  0  0  0  0  0  0  0  0  0
    3.9660    1.0977    3.2183 H   0  0  0  0  0  0  0  0  0  0  0  0
    2.4940    0.6859    1.3340 H   0  0  0  0  0  0  0  0  0  0  0  0
  1  2  4  0
  2  3  4  0
  3  4  4  0
  4  5  4  0
  5  6  4  0
  6  7  4  0
  7  8  4  0
  8  9  4  0
  9 10  4  0
 10 11  4  0
 11 12  4  0
 12 13  4  0
 13 14  4  0
  9 15  4  0
 15 16  4  0
 16 17  4  0
 17 18  4  0
 18 19  4  0
 19 20  4  0
 20 21  4  0
 21 22  4  0
 22 23  1  0
 23 24  4  0
 24 25  4  0
 25 26  4  0
 26 27  4  0
 27 28  4  0
 28 29  4  0
 29 30  4  0
 30 31  4  0
 31 32  4  0
 32 33  4  0
 33 34  4  0
 34 35  4  0
 35 36  4  0
 36 37  4  0
 37 38  4  0
 38 39  4  0
 39 40  4  0
 40 41  1  0
 41 42  4  0
 42 43  4  0
 43 44  4  0
 44 45  4  0
 45 46  4  0
 46 47  4  0
 47 48  4  0
 48 49  4  0
 49 50  4  0
 50 51  4  0
 51 52  4  0
 52 53  4  0
 53 54  4  0
 54 55  4  0
 55 56  4  0
 56 57  4  0
 57 58  4  0
 58 59  4  0
 59 60  4  0
 60 61  4  0
 61 62  4  0
 14  1  4  0
 21 16  4  0
 40 23  4  0
 62 41  4  0
 13  4  4  0
 38 25  4  0
 47 42  4  0
 62 49  4  0
 11  6  4  0
 36 27  4  0
 60 51  4  0
 22  8  4  0
 34 29  4  0
 58 53  4  0
  1 63  1  0
  2 64  1  0
  3 65  1  0
  5 66  1  0
  7 67  1  0
 10 68  1  0
 12 69  1  0
 14 70  1  0
 15 71  1  0
 17 72  1  0
 18 73  1  0
 19 74  1  0
 20 75  1  0
 24 76  1  0
 26 77  1  0
 28 78  1  0
 30 79  1  0
 31 80  1  0
 32 81  1  0
 33 82  1  0
 35 83  1  0
 37 84  1  0
 39 85  1  0
 43 86  1  0
 44 87  1  0
 45 88  1  0
 46 89  1  0
 48 90  1  0
 50 91  1  0
 52 92  1  0
 54 93  1  0
 55 94  1  0
 56 95  1  0
 57 96  1  0
 59 97  1  0
 61 98  1  0
M  END
