
     RDKit          3D

 98111  0  0  0  0  0  0  0  0999 V2000
    3.9070   -5.2230   -5.8498 C   0  0  0  0  0  0  0  0  0  0  0  0
    3.8538   -5.4166   -4.4686 C   0  0  0  0  0  0  0  0  0  0  0  0
    3.3929   -4.3986   -3.6174 C   0  0  0  0  0  0  0  0  0  0  0  0
    3.3330   -4.5777   -2.2254 C   0  0  0  0  0  0  0  0  0  0  0  0
    2.8721   -3.5589   -1.3745 C   0  0  0  0  0  0  0  0  0  0  0  0
    2.8122   -3.7367    0.0181 C   0  0  0  0  0  0  0  0  0  0  0  0
    2.3524   -2.7171    0.8692 C   0  0  0  0  0  0  0  0  0  0  0  0
    2.2950   -2.8881    2.2612 C   0  0  0  0  0  0  0  0  0  0  0  0
    1.8334   -1.8701    3.1139 C   0  0  0  0  0  0  0  0  0  0  0  0
    1.7957   -2.0793    4.5002 C   0  0  0  0  0  0  0  0  0  0  0  0
    1.3439   -1.0856    5.3627 C   0  0  0  0  0  0  0  0  0  0  0  0
    0.9132    0.1318    4.8477 C   0  0  0  0  0  0  0  0  0  0  0  0
    0.9205    0.3769    3.4623 C   0  0  0  0  0  0  0  0  0  0  0  0
    0.4257    1.6842    2.9734 C   0  0  0  0  0  0  0  0  0  0  0  0
    1.3629    2.6310    2.5124 C   0  0  0  0  0  0  0  0  0  0  0  0
    0.9687    3.8741    1.9944 C   0  0  0  0  0  0  0  0  0  0  0  0
    1.9104    4.8030    1.5225 C   0  0  0  0  0  0  0  0  0  0  0  0
    1.5142    6.0436    0.9961 C   0  0  0  0  0  0  0  0  0  0  0  0
    2.4555    6.9736    0.5237 C   0  0  0  0  0  0  0  0  0  0  0  0
    2.0585    8.2133   -0.0040 C   0  0  0  0  0  0  0  0  0  0  0  0
    2.9985    9.1441   -0.4762 C   0  0  0  0  0  0  0  0  0  0  0  0
    2.5876   10.3718   -0.9976 C   0  0  0  0  0  0  0  0  0  0  0  0
    1.2330   10.6843   -1.0537 C   0  0  0  0  0  0  0  0  0  0  0  0
    0.2869    9.7698   -0.5885 C   0  0  0  0  0  0  0  0  0  0  0  0
    0.6846    8.5305   -0.0609 C   0  0  0  0  0  0  0  0  0  0  0  0
   -0.2554    7.6002    0.4120 C   0  0  0  0  0  0  0  0  0  0  0  0
    0.1430    6.3612    0.9404 C   0  0  0  0  0  0  0  0  0  0  0  0
   -0.7975    5.4321    1.4150 C   0  0  0  0  0  0  0  0  0  0  0  0
   -0.4001    4.1927    1.9420 C   0  0  0  0  0  0  0  0  0  0  0  0
   -1.3389    3.2651    2.4198 C   0  0  0  0  0  0  0  0  0  0  0  0
   -0.9509    2.0149    2.9413 C   0  0  0  0  0  0  0  0  0  0  0  0
   -2.0043    1.1107    3.4542 C   0  0  0  0  0  0  0  0  0  0  0  0
   -2.5310    0.0247    2.6964 C   0  0  0  0  0  0  0  0  0  0  0  0
   -2.1238   -0.2772    1.3766 C   0  0  0  0  0  0  0  0  0  0  0  0
   -2.6307   -1.3753    0.6613 C   0  0  0  0  0  0  0  0  0  0  0  0
   -2.1840   -1.6740   -0.6364 C   0  0  0  0  0  0  0  0  0  0  0  0
   -2.6907   -2.7714   -1.3513 C   0  0  0  0  0  0  0  0  0  0  0  0
   -2.2398   -3.0709   -2.6476 C   0  0  0  0  0  0  0  0  0  0  0  0
   -2.7483   -4.1664   -3.3646 C   0  0  0  0  0  0  0  0  0  0  0  0
   -2.2991   -4.4660   -4.6614 C   0  0  0  0  0  0  0  0  0  0  0  0
   -2.8148   -5.5579   -5.3611 C   0  0  0  0  0  0  0  0  0  0  0  0
   -3.7851   -6.3640   -4.7738 C   0  0  0  0  0  0  0  0  0  0  0  0
   -4.2411   -6.0794   -3.4858 C   0  0  0  0  0  0  0  0  0  0  0  0
   -3.7321   -4.9839   -2.7687 C   0  0  0  0  0  0  0  0  0  0  0  0
   -4.1799   -4.6848   -1.4712 C   0  0  0  0  0  0  0  0  0  0  0  0
   -3.6703   -3.5886   -0.7548 C   0  0  0  0  0  0  0  0  0  0  0  0
   -4.1139   -3.2902    0.5448 C   0  0  0  0  0  0  0  0  0  0  0  0
   -3.6019   -2.1941    1.2603 C   0  0  0  0  0  0  0  0  0  0  0  0
   -4.0361   -1.8956    2.5609 C   0  0  0  0  0  0  0  0  0  0  0  0
   -3.5167   -0.8063    3.2813 C   0  0  0  0  0  0  0  0  0  0  0  0
   -3.9748   -0.5412    4.5804 C   0  0  0  0  0  0  0  0  0  0  0  0
   -3.4746    0.5320    5.3104 C   0  0  0  0  0  0  0  0  0  0  0  0
   -2.4994    1.3500    4.7512 C   0  0  0  0  0  0  0  0  0  0  0  0
    1.4039   -0.6343    2.5751 C   0  0  0  0  0  0  0  0  0  0  0  0
    1.4756   -0.4798    1.1683 C   0  0  0  0  0  0  0  0  0  0  0  0
    1.9408   -1.4949    0.3152 C   0  0  0  0  0  0  0  0  0  0  0  0
    2.0012   -1.3139   -1.0772 C   0  0  0  0  0  0  0  0  0  0  0  0
    2.4613   -2.3314   -1.9292 C   0  0  0  0  0  0  0  0  0  0  0  0
    2.5199   -2.1511   -3.3215 C   0  0  0  0  0  0  0  0  0  0  0  0
    2.9806   -3.1688   -4.1730 C   0  0  0  0  0  0  0  0  0  0  0  0
    3.0398   -2.9894   -5.5650 C   0  0  0  0  0  0  0  0  0  0  0  0
    3.5003   -4.0104   -6.3975 C   0  0  0  0  0  0  0  0  0  0  0  0
    4.2659   -6.0195   -6.4962 H   0  0  0  0  0  0  0  0  0  0  0  0
    4.1759   -6.3717   -4.0596 H   0  0  0  0  0  0  0  0  0  0  0  0
    3.6508   -5.5267   -1.7974 H   0  0  0  0  0  0  0  0  0  0  0  0
    3.1275   -4.6857    0.4476 H   0  0  0  0  0  0  0  0  0  0  0  0
    2.6157   -3.8361    2.6902 H   0  0  0  0  0  0  0  0  0  0  0  0
    2.1211   -3.0279    4.9222 H   0  0  0  0  0  0  0  0  0  0  0  0
    1.3208   -1.2620    6.4344 H   0  0  0  0  0  0  0  0  0  0  0  0
    0.5581    0.8982    5.5335 H   0  0  0  0  0  0  0  0  0  0  0  0
    2.4226    2.3786    2.5507 H   0  0  0  0  0  0  0  0  0  0  0  0
    2.9698    4.5553    1.5643 H   0  0  0  0  0  0  0  0  0  0  0  0
    3.5153    6.7295    0.5682 H   0  0  0  0  0  0  0  0  0  0  0  0
    4.0620    8.9188   -0.4409 H   0  0  0  0  0  0  0  0  0  0  0  0
    3.3259   11.0826   -1.3593 H   0  0  0  0  0  0  0  0  0  0  0  0
    0.9110   11.6399   -1.4594 H   0  0  0  0  0  0  0  0  0  0  0  0
   -0.7671   10.0333   -0.6408 H   0  0  0  0  0  0  0  0  0  0  0  0
   -1.3150    7.8457    0.3687 H   0  0  0  0  0  0  0  0  0  0  0  0
   -1.8574    5.6774    1.3729 H   0  0  0  0  0  0  0  0  0  0  0  0
   -2.4001    3.5113    2.3872 H   0  0  0  0  0  0  0  0  0  0  0  0
   -1.3856    0.3561    0.8904 H   0  0  0  0  0  0  0  0  0  0  0  0
   -1.4223   -1.0456   -1.0941 H   0  0  0  0  0  0  0  0  0  0  0  0
   -1.4789   -2.4408   -3.1047 H   0  0  0  0  0  0  0  0  0  0  0  0
   -1.5411   -3.8478   -5.1370 H   0  0  0  0  0  0  0  0  0  0  0  0
   -2.4581   -5.7779   -6.3639 H   0  0  0  0  0  0  0  0  0  0  0  0
   -4.1879   -7.2148   -5.3170 H   0  0  0  0  0  0  0  0  0  0  0  0
   -4.9998   -6.7212   -3.0436 H   0  0  0  0  0  0  0  0  0  0  0  0
   -4.9372   -5.3165   -1.0108 H   0  0  0  0  0  0  0  0  0  0  0  0
   -4.8678   -3.9235    1.0086 H   0  0  0  0  0  0  0  0  0  0  0  0
   -4.7908   -2.5288    3.0242 H   0  0  0  0  0  0  0  0  0  0  0  0
   -4.7329   -1.1749    5.0360 H   0  0  0  0  0  0  0  0  0  0  0  0
   -3.8403    0.7267    6.3148 H   0  0  0  0  0  0  0  0  0  0  0  0
   -2.1092    2.1816    5.3354 H   0  0  0  0  0  0  0  0  0  0  0  0
    1.1544    0.4570    0.7173 H   0  0  0  0  0  0  0  0  0  0  0  0
    1.6846   -0.3640   -1.5046 H   0  0  0  0  0  0  0  0  0  0  0  0
    2.2005   -1.2028   -3.7499 H   0  0  0  0  0  0  0  0  0  0  0  0
    2.7259   -2.0489   -6.0122 H   0  0  0  0  0  0  0  0  0  0  0  0
    3.5408   -3.8577   -7.4728 H   0  0  0  0  0  0  0  0  0  0  0  0
  1  2  4  0
  2  3  4  0
  3  4  4  0
  4  5  4  0
  5  6  4  0
  6  7  4  0
  7  8  4  0
  8  9  4  0
  9 10  4  0
 10 11  4  0
 11 12  4  0
 12 13  4  0
 13 14  1  0
 14 15  4  0
 15 16  4  0
 16 17  4  0
 17 18  4  0
 18 19  4  0
 19 20  4  0
 20 21  4  0
 21 22  4  0
 22 23  4  0
 23 24  4  0
 24 25  4  0
 25 26  4  0
 26 27  4  0
 27 28  4  0
 28 29  4  0
 29 30  4  0
 30 31  4  0
 31 32  1  0
 32 33  4  0
 33 34  4  0
 34 35  4  0
 35 36  4  0
 36 37  4  0
 37 38  4  0
 38 39  4  0
 39 40  4  0
 40 41  4  0
 41 42  4  0
 42 43  4  0
 43 44  4  0
 44 45  4  0
 45 46  4  0
 46 47  4  0
 47 48  4  0
 48 49  4  0
 49 50  4  0
 50 51  4  0
 51 52  4  0
 52 53  4  0
 13 54  4  0
 54 55  4  0
 55 56  4  0
 56 57  4  0
 57 58  4  0
 58 59  4  0
 59 60  4  0
 60 61  4  0
 61 62  4  0
 62  1  4  0
 60  3  4  0
 58  5  4  0
 56  7  4  0
 54  9  4  0
 31 14  4  0
 53 32  4  0
 29 16  4  0
 50 33  4  0
 27 18  4  0
 48 35  4  0
 25 20  4  0
 46 37  4  0
 44 39  4  0
  1 63  1  0
  2 64  1  0
  4 65  1  0
  6 66  1  0
  8 67  1  0
 10 68  1  0
 11 69  1  0
 12 70  1  0
 15 71  1  0
 17 72  1  0
 19 73  1  0
 21 74  1  0
 22 75  1  0
 23 76  1  0
 24 77  1  0
 26 78  1  0
 28 79  1  0
 30 80  1  0
 34 81  1  0
 36 82  1  0
 38 83  1  0
 40 84  1  0
 41 85  1  0
 42 86  1  0
 43 87  1  0
 45 88  1  0
 47 89  1  0
 49 90  1  0
 51 91  1  0
 52 92  1  0
 53 93  1  0
 55 94  1  0
 57 95  1  0
 59 96  1  0
 61 97  1  0
 62 98  1  0
M  END
