
     RDKit          3D

 98111  0  0  0  0  0  0  0  0999 V2000
   -5.0189   -0.0378    5.0754 C   0  0  0  0  0  0  0  0  0  0  0  0
   -3.6761   -0.0854    5.4333 C   0  0  0  0  0  0  0  0  0  0  0  0
   -2.7069   -0.3328    4.4611 C   0  0  0  0  0  0  0  0  0  0  0  0
   -3.0632   -0.5074    3.1140 C   0  0  0  0  0  0  0  0  0  0  0  0
   -2.0946   -0.7037    2.1130 C   0  0  0  0  0  0  0  0  0  0  0  0
   -2.4220   -0.8287    0.7411 C   0  0  0  0  0  0  0  0  0  0  0  0
   -3.7934   -0.8393    0.4122 C   0  0  0  0  0  0  0  0  0  0  0  0
   -4.7681   -0.6522    1.4091 C   0  0  0  0  0  0  0  0  0  0  0  0
   -4.4206   -0.4657    2.7540 C   0  0  0  0  0  0  0  0  0  0  0  0
   -5.3911   -0.2367    3.7451 C   0  0  0  0  0  0  0  0  0  0  0  0
   -4.1893   -1.0350   -0.9150 C   0  0  0  0  0  0  0  0  0  0  0  0
   -3.2619   -1.2354   -1.9424 C   0  0  0  0  0  0  0  0  0  0  0  0
   -3.7160   -1.4704   -3.2533 C   0  0  0  0  0  0  0  0  0  0  0  0
   -2.8274   -1.6798   -4.3172 C   0  0  0  0  0  0  0  0  0  0  0  0
   -3.2823   -1.9187   -5.6256 C   0  0  0  0  0  0  0  0  0  0  0  0
   -2.3785   -2.1249   -6.6689 C   0  0  0  0  0  0  0  0  0  0  0  0
   -1.0105   -2.0930   -6.4173 C   0  0  0  0  0  0  0  0  0  0  0  0
   -0.5470   -1.8566   -5.1223 C   0  0  0  0  0  0  0  0  0  0  0  0
   -1.4462   -1.6498   -4.0621 C   0  0  0  0  0  0  0  0  0  0  0  0
   -0.9994   -1.4111   -2.7500 C   0  0  0  0  0  0  0  0  0  0  0  0
   -1.8814   -1.1956   -1.6578 C   0  0  0  0  0  0  0  0  0  0  0  0
   -1.4529   -0.9441   -0.3078 C   0  0  0  0  0  0  0  0  0  0  0  0
    0.0032   -0.7820   -0.0198 C   0  0  0  0  0  0  0  0  0  0  0  0
    0.8027   -1.9394    0.0674 C   0  0  0  0  0  0  0  0  0  0  0  0
    2.1931   -1.8681    0.2443 C   0  0  0  0  0  0  0  0  0  0  0  0
    2.9804   -3.0285    0.3148 C   0  0  0  0  0  0  0  0  0  0  0  0
    4.3737   -2.9591    0.4776 C   0  0  0  0  0  0  0  0  0  0  0  0
    5.1608   -4.1206    0.5445 C   0  0  0  0  0  0  0  0  0  0  0  0
    6.5543   -4.0518    0.7030 C   0  0  0  0  0  0  0  0  0  0  0  0
    7.3415   -5.2129    0.7668 C   0  0  0  0  0  0  0  0  0  0  0  0
    8.7255   -5.1284    0.9228 C   0  0  0  0  0  0  0  0  0  0  0  0
    9.3398   -3.8836    1.0181 C   0  0  0  0  0  0  0  0  0  0  0  0
    8.5710   -2.7205    0.9573 C   0  0  0  0  0  0  0  0  0  0  0  0
    7.1770   -2.7888    0.7993 C   0  0  0  0  0  0  0  0  0  0  0  0
    6.3887   -1.6283    0.7341 C   0  0  0  0  0  0  0  0  0  0  0  0
    4.9945   -1.6983    0.5736 C   0  0  0  0  0  0  0  0  0  0  0  0
    4.2057   -0.5378    0.5057 C   0  0  0  0  0  0  0  0  0  0  0  0
    2.8125   -0.6083    0.3414 C   0  0  0  0  0  0  0  0  0  0  0  0
    2.0239    0.5507    0.2786 C   0  0  0  0  0  0  0  0  0  0  0  0
    0.6245    0.4900    0.1211 C   0  0  0  0  0  0  0  0  0  0  0  0
   -0.1529    1.7616    0.1479 C   0  0  0  0  0  0  0  0  0  0  0  0
   -0.4924    2.3542    1.4118 C   0  0  0  0  0  0  0  0  0  0  0  0
    0.0149    1.9112    2.6618 C   0  0  0  0  0  0  0  0  0  0  0  0
   -0.3773    2.4713    3.8896 C   0  0  0  0  0  0  0  0  0  0  0  0
    0.1373    2.0034    5.1110 C   0  0  0  0  0  0  0  0  0  0  0  0
   -0.3008    2.5390    6.3224 C   0  0  0  0  0  0  0  0  0  0  0  0
   -1.2548    3.5512    6.3267 C   0  0  0  0  0  0  0  0  0  0  0  0
   -1.7580    4.0390    5.1195 C   0  0  0  0  0  0  0  0  0  0  0  0
   -1.3220    3.5107    3.8925 C   0  0  0  0  0  0  0  0  0  0  0  0
   -1.8047    3.9904    2.6658 C   0  0  0  0  0  0  0  0  0  0  0  0
   -1.3899    3.4401    1.4387 C   0  0  0  0  0  0  0  0  0  0  0  0
   -1.8765    3.9674    0.2371 C   0  0  0  0  0  0  0  0  0  0  0  0
   -1.4757    3.4674   -1.0076 C   0  0  0  0  0  0  0  0  0  0  0  0
   -1.9530    4.0631   -2.1890 C   0  0  0  0  0  0  0  0  0  0  0  0
   -1.5662    3.6019   -3.4557 C   0  0  0  0  0  0  0  0  0  0  0  0
   -2.0468    4.1933   -4.6363 C   0  0  0  0  0  0  0  0  0  0  0  0
   -1.6458    3.7190   -5.8863 C   0  0  0  0  0  0  0  0  0  0  0  0
   -0.7592    2.6504   -5.9715 C   0  0  0  0  0  0  0  0  0  0  0  0
   -0.2735    2.0564   -4.8065 C   0  0  0  0  0  0  0  0  0  0  0  0
   -0.6710    2.5215   -3.5417 C   0  0  0  0  0  0  0  0  0  0  0  0
   -0.1981    1.9309   -2.3573 C   0  0  0  0  0  0  0  0  0  0  0  0
   -0.5965    2.3666   -1.0702 C   0  0  0  0  0  0  0  0  0  0  0  0
   -5.7754    0.1607    5.8293 H   0  0  0  0  0  0  0  0  0  0  0  0
   -3.3769    0.0827    6.4642 H   0  0  0  0  0  0  0  0  0  0  0  0
   -1.6623   -0.3636    4.7595 H   0  0  0  0  0  0  0  0  0  0  0  0
   -1.0507   -0.7452    2.4151 H   0  0  0  0  0  0  0  0  0  0  0  0
   -5.8207   -0.6408    1.1316 H   0  0  0  0  0  0  0  0  0  0  0  0
   -6.4455   -0.1974    3.4821 H   0  0  0  0  0  0  0  0  0  0  0  0
   -5.2522   -1.0457   -1.1530 H   0  0  0  0  0  0  0  0  0  0  0  0
   -4.7865   -1.4928   -3.4511 H   0  0  0  0  0  0  0  0  0  0  0  0
   -4.3482   -1.9438   -5.8405 H   0  0  0  0  0  0  0  0  0  0  0  0
   -2.7435   -2.3082   -7.6760 H   0  0  0  0  0  0  0  0  0  0  0  0
   -0.3032   -2.2503   -7.2274 H   0  0  0  0  0  0  0  0  0  0  0  0
    0.5255   -1.8294   -4.9443 H   0  0  0  0  0  0  0  0  0  0  0  0
    0.0753   -1.3910   -2.5799 H   0  0  0  0  0  0  0  0  0  0  0  0
    0.3226   -2.9133   -0.0280 H   0  0  0  0  0  0  0  0  0  0  0  0
    2.4997   -4.0024    0.2391 H   0  0  0  0  0  0  0  0  0  0  0  0
    4.6806   -5.0948    0.4703 H   0  0  0  0  0  0  0  0  0  0  0  0
    6.8812   -6.1958    0.6946 H   0  0  0  0  0  0  0  0  0  0  0  0
    9.3229   -6.0351    0.9703 H   0  0  0  0  0  0  0  0  0  0  0  0
   10.4178   -3.8166    1.1405 H   0  0  0  0  0  0  0  0  0  0  0  0
    9.0712   -1.7575    1.0339 H   0  0  0  0  0  0  0  0  0  0  0  0
    6.8680   -0.6537    0.8083 H   0  0  0  0  0  0  0  0  0  0  0  0
    4.6842    0.4373    0.5808 H   0  0  0  0  0  0  0  0  0  0  0  0
    2.4971    1.5284    0.3685 H   0  0  0  0  0  0  0  0  0  0  0  0
    0.7297    1.0912    2.6882 H   0  0  0  0  0  0  0  0  0  0  0  0
    0.8762    1.2051    5.1248 H   0  0  0  0  0  0  0  0  0  0  0  0
    0.0976    2.1606    7.2598 H   0  0  0  0  0  0  0  0  0  0  0  0
   -1.6103    3.9613    7.2680 H   0  0  0  0  0  0  0  0  0  0  0  0
   -2.5035    4.8302    5.1425 H   0  0  0  0  0  0  0  0  0  0  0  0
   -2.5225    4.8089    2.6675 H   0  0  0  0  0  0  0  0  0  0  0  0
   -2.5719    4.8050    0.2722 H   0  0  0  0  0  0  0  0  0  0  0  0
   -2.6399    4.9052   -2.1225 H   0  0  0  0  0  0  0  0  0  0  0  0
   -2.7419    5.0283   -4.5885 H   0  0  0  0  0  0  0  0  0  0  0  0
   -2.0277    4.1834   -6.7915 H   0  0  0  0  0  0  0  0  0  0  0  0
   -0.4468    2.2763   -6.9428 H   0  0  0  0  0  0  0  0  0  0  0  0
    0.4107    1.2155   -4.8923 H   0  0  0  0  0  0  0  0  0  0  0  0
    0.5067    1.1072   -2.4450 H   0  0  0  0  0  0  0  0  0  0  0  0
  1  2  4  0
  2  3  4  0
  3  4  4  0
  4  5  4  0
  5  6  4  0
  6  7  4  0
  7  8  4  0
  8  9  4  0
  9 10  4  0
  7 11  4  0
 11 12  4  0
 12 13  4  0
 13 14  4  0
 14 15  4  0
 15 16  4  0
 16 17  4  0
 17 18  4  0
 18 19  4  0
 19 20  4  0
 20 21  4  0
 21 22  4  0
 22 23  1  0
 23 24  4  0
 24 25  4  0
 25 26  4  0
 26 27  4  0
 27 28  4  0
 28 29  4  0
 29 30  4  0
 30 31  4  0
 31 32  4  0
 32 33  4  0
 33 34  4  0
 34 35  4  0
 35 36  4  0
 36 37  4  0
 37 38  4  0
 38 39  4  0
 39 40  4  0
 40 41  1  0
 41 42  4  0
 42 43  4  0
 43 44  4  0
 44 45  4  0
 45 46  4  0
 46 47  4  0
 47 48  4  0
 48 49  4  0
 49 50  4  0
 50 51  4  0
 51 52  4  0
 52 53  4  0
 53 54  4  0
 54 55  4  0
 55 56  4  0
 56 57  4  0
 57 58  4  0
 58 59  4  0
 59 60  4  0
 60 61  4  0
 61 62  4  0
 10  1  4  0
 21 12  4  0
 40 23  4  0
 62 41  4  0
  9  4  4  0
 19 14  4  0
 38 25  4  0
 51 42  4  0
 62 53  4  0
 22  6  4  0
 36 27  4  0
 49 44  4  0
 60 55  4  0
 34 29  4  0
  1 63  1  0
  2 64  1  0
  3 65  1  0
  5 66  1  0
  8 67  1  0
 10 68  1  0
 11 69  1  0
 13 70  1  0
 15 71  1  0
 16 72  1  0
 17 73  1  0
 18 74  1  0
 20 75  1  0
 24 76  1  0
 26 77  1  0
 28 78  1  0
 30 79  1  0
 31 80  1  0
 32 81  1  0
 33 82  1  0
 35 83  1  0
 37 84  1  0
 39 85  1  0
 43 86  1  0
 45 87  1  0
 46 88  1  0
 47 89  1  0
 48 90  1  0
 50 91  1  0
 52 92  1  0
 54 93  1  0
 56 94  1  0
 57 95  1  0
 58 96  1  0
 59 97  1  0
 61 98  1  0
M  END
