
     RDKit          3D

 98111  0  0  0  0  0  0  0  0999 V2000
    0.1046   -3.3967    4.0911 C   0  0  0  0  0  0  0  0  0  0  0  0
   -0.4916   -2.1618    3.8899 C   0  0  0  0  0  0  0  0  0  0  0  0
   -0.0903   -1.3655    2.8146 C   0  0  0  0  0  0  0  0  0  0  0  0
    0.8993   -1.7840    1.8918 C   0  0  0  0  0  0  0  0  0  0  0  0
    1.5158   -3.0307    2.1375 C   0  0  0  0  0  0  0  0  0  0  0  0
    1.1082   -3.8236    3.2251 C   0  0  0  0  0  0  0  0  0  0  0  0
    2.5383   -3.4785    1.2945 C   0  0  0  0  0  0  0  0  0  0  0  0
    3.0045   -2.7081    0.2235 C   0  0  0  0  0  0  0  0  0  0  0  0
    4.0658   -3.1833   -0.5682 C   0  0  0  0  0  0  0  0  0  0  0  0
    4.5865   -2.4353   -1.6340 C   0  0  0  0  0  0  0  0  0  0  0  0
    5.6513   -2.9109   -2.4190 C   0  0  0  0  0  0  0  0  0  0  0  0
    6.1845   -2.1473   -3.4703 C   0  0  0  0  0  0  0  0  0  0  0  0
    7.2556   -2.6169   -4.2490 C   0  0  0  0  0  0  0  0  0  0  0  0
    7.7784   -1.8421   -5.2856 C   0  0  0  0  0  0  0  0  0  0  0  0
    7.2378   -0.5891   -5.5571 C   0  0  0  0  0  0  0  0  0  0  0  0
    6.1724   -0.1099   -4.7933 C   0  0  0  0  0  0  0  0  0  0  0  0
    5.6341   -0.8782   -3.7470 C   0  0  0  0  0  0  0  0  0  0  0  0
    4.5619   -0.4117   -2.9680 C   0  0  0  0  0  0  0  0  0  0  0  0
    4.0330   -1.1771   -1.9135 C   0  0  0  0  0  0  0  0  0  0  0  0
    2.9616   -0.7140   -1.1281 C   0  0  0  0  0  0  0  0  0  0  0  0
    2.4093   -1.4610   -0.0549 C   0  0  0  0  0  0  0  0  0  0  0  0
    1.3027   -1.0218    0.7480 C   0  0  0  0  0  0  0  0  0  0  0  0
    0.5600    0.2134    0.3673 C   0  0  0  0  0  0  0  0  0  0  0  0
    1.0627    1.4610    0.7872 C   0  0  0  0  0  0  0  0  0  0  0  0
    0.4410    2.6675    0.4288 C   0  0  0  0  0  0  0  0  0  0  0  0
    0.9487    3.9066    0.8529 C   0  0  0  0  0  0  0  0  0  0  0  0
    0.3307    5.1152    0.4903 C   0  0  0  0  0  0  0  0  0  0  0  0
    0.8382    6.3546    0.9160 C   0  0  0  0  0  0  0  0  0  0  0  0
    0.2204    7.5626    0.5530 C   0  0  0  0  0  0  0  0  0  0  0  0
    0.7269    8.8016    0.9788 C   0  0  0  0  0  0  0  0  0  0  0  0
    0.1008    9.9933    0.6105 C   0  0  0  0  0  0  0  0  0  0  0  0
   -1.0380    9.9618   -0.1883 C   0  0  0  0  0  0  0  0  0  0  0  0
   -1.5528    8.7386   -0.6200 C   0  0  0  0  0  0  0  0  0  0  0  0
   -0.9346    7.5306   -0.2570 C   0  0  0  0  0  0  0  0  0  0  0  0
   -1.4410    6.2913   -0.6822 C   0  0  0  0  0  0  0  0  0  0  0  0
   -0.8228    5.0832   -0.3176 C   0  0  0  0  0  0  0  0  0  0  0  0
   -1.3310    3.8433   -0.7402 C   0  0  0  0  0  0  0  0  0  0  0  0
   -0.7136    2.6355   -0.3758 C   0  0  0  0  0  0  0  0  0  0  0  0
   -1.2280    1.3974   -0.7918 C   0  0  0  0  0  0  0  0  0  0  0  0
   -0.6215    0.1801   -0.4236 C   0  0  0  0  0  0  0  0  0  0  0  0
   -1.2619   -1.0963   -0.8524 C   0  0  0  0  0  0  0  0  0  0  0  0
   -2.3161   -1.6627   -0.0592 C   0  0  0  0  0  0  0  0  0  0  0  0
   -2.9079   -1.0143    1.0547 C   0  0  0  0  0  0  0  0  0  0  0  0
   -3.9013   -1.6116    1.8502 C   0  0  0  0  0  0  0  0  0  0  0  0
   -4.4453   -0.9518    2.9654 C   0  0  0  0  0  0  0  0  0  0  0  0
   -5.4237   -1.5585    3.7690 C   0  0  0  0  0  0  0  0  0  0  0  0
   -5.9638   -0.9020    4.8869 C   0  0  0  0  0  0  0  0  0  0  0  0
   -6.9331   -1.5204    5.6780 C   0  0  0  0  0  0  0  0  0  0  0  0
   -7.3740   -2.8017    5.3617 C   0  0  0  0  0  0  0  0  0  0  0  0
   -6.8473   -3.4661    4.2530 C   0  0  0  0  0  0  0  0  0  0  0  0
   -5.8718   -2.8569    3.4466 C   0  0  0  0  0  0  0  0  0  0  0  0
   -5.3315   -3.5105    2.3267 C   0  0  0  0  0  0  0  0  0  0  0  0
   -4.3500   -2.9006    1.5261 C   0  0  0  0  0  0  0  0  0  0  0  0
   -3.8038   -3.5457    0.4070 C   0  0  0  0  0  0  0  0  0  0  0  0
   -2.8079   -2.9434   -0.3838 C   0  0  0  0  0  0  0  0  0  0  0  0
   -2.2979   -3.6220   -1.4957 C   0  0  0  0  0  0  0  0  0  0  0  0
   -1.3260   -3.0541   -2.3264 C   0  0  0  0  0  0  0  0  0  0  0  0
   -0.8681   -3.7622   -3.4513 C   0  0  0  0  0  0  0  0  0  0  0  0
    0.0899   -3.2184   -4.3032 C   0  0  0  0  0  0  0  0  0  0  0  0
    0.5897   -1.9510   -4.0484 C   0  0  0  0  0  0  0  0  0  0  0  0
    0.1392   -1.2384   -2.9345 C   0  0  0  0  0  0  0  0  0  0  0  0
   -0.8081   -1.7739   -2.0288 C   0  0  0  0  0  0  0  0  0  0  0  0
   -0.2062   -4.0255    4.9206 H   0  0  0  0  0  0  0  0  0  0  0  0
   -1.2763   -1.8173    4.5585 H   0  0  0  0  0  0  0  0  0  0  0  0
   -0.5709   -0.3970    2.7010 H   0  0  0  0  0  0  0  0  0  0  0  0
    1.5730   -4.7906    3.4058 H   0  0  0  0  0  0  0  0  0  0  0  0
    2.9993   -4.4454    1.4909 H   0  0  0  0  0  0  0  0  0  0  0  0
    4.5024   -4.1556   -0.3447 H   0  0  0  0  0  0  0  0  0  0  0  0
    6.0740   -3.8903   -2.2045 H   0  0  0  0  0  0  0  0  0  0  0  0
    7.6928   -3.5929   -4.0510 H   0  0  0  0  0  0  0  0  0  0  0  0
    8.6077   -2.2175   -5.8791 H   0  0  0  0  0  0  0  0  0  0  0  0
    7.6436    0.0167   -6.3628 H   0  0  0  0  0  0  0  0  0  0  0  0
    5.7630    0.8720   -5.0202 H   0  0  0  0  0  0  0  0  0  0  0  0
    4.1344    0.5662   -3.1821 H   0  0  0  0  0  0  0  0  0  0  0  0
    2.5474    0.2646   -1.3636 H   0  0  0  0  0  0  0  0  0  0  0  0
    1.9644    1.4813    1.3992 H   0  0  0  0  0  0  0  0  0  0  0  0
    1.8401    3.9310    1.4776 H   0  0  0  0  0  0  0  0  0  0  0  0
    1.7292    6.3806    1.5409 H   0  0  0  0  0  0  0  0  0  0  0  0
    1.6166    8.8481    1.6029 H   0  0  0  0  0  0  0  0  0  0  0  0
    0.5031   10.9451    0.9476 H   0  0  0  0  0  0  0  0  0  0  0  0
   -1.5267   10.8890   -0.4763 H   0  0  0  0  0  0  0  0  0  0  0  0
   -2.4440    8.7355   -1.2438 H   0  0  0  0  0  0  0  0  0  0  0  0
   -2.3322    6.2680   -1.3070 H   0  0  0  0  0  0  0  0  0  0  0  0
   -2.2237    3.8180   -1.3630 H   0  0  0  0  0  0  0  0  0  0  0  0
   -2.1282    1.3677   -1.4056 H   0  0  0  0  0  0  0  0  0  0  0  0
   -2.5778   -0.0130    1.3248 H   0  0  0  0  0  0  0  0  0  0  0  0
   -4.0969    0.0490    3.2144 H   0  0  0  0  0  0  0  0  0  0  0  0
   -5.6318    0.1001    5.1491 H   0  0  0  0  0  0  0  0  0  0  0  0
   -7.3433   -1.0010    6.5402 H   0  0  0  0  0  0  0  0  0  0  0  0
   -8.1283   -3.2852    5.9767 H   0  0  0  0  0  0  0  0  0  0  0  0
   -7.2042   -4.4671    4.0218 H   0  0  0  0  0  0  0  0  0  0  0  0
   -5.6776   -4.5114    2.0757 H   0  0  0  0  0  0  0  0  0  0  0  0
   -4.1586   -4.5421    0.1481 H   0  0  0  0  0  0  0  0  0  0  0  0
   -2.6787   -4.6148   -1.7306 H   0  0  0  0  0  0  0  0  0  0  0  0
   -1.2560   -4.7542   -3.6726 H   0  0  0  0  0  0  0  0  0  0  0  0
    0.4403   -3.7829   -5.1628 H   0  0  0  0  0  0  0  0  0  0  0  0
    1.3350   -1.5142   -4.7069 H   0  0  0  0  0  0  0  0  0  0  0  0
    0.5458   -0.2426   -2.7772 H   0  0  0  0  0  0  0  0  0  0  0  0
  1  2  4  0
  2  3  4  0
  3  4  4  0
  4  5  4  0
  5  6  4  0
  5  7  4  0
  7  8  4  0
  8  9  4  0
  9 10  4  0
 10 11  4  0
 11 12  4  0
 12 13  4  0
 13 14  4  0
 14 15  4  0
 15 16  4  0
 16 17  4  0
 17 18  4  0
 18 19  4  0
 19 20  4  0
 20 21  4  0
 21 22  4  0
 22 23  1  0
 23 24  4  0
 24 25  4  0
 25 26  4  0
 26 27  4  0
 27 28  4  0
 28 29  4  0
 29 30  4  0
 30 31  4  0
 31 32  4  0
 32 33  4  0
 33 34  4  0
 34 35  4  0
 35 36  4  0
 36 37  4  0
 37 38  4  0
 38 39  4  0
 39 40  4  0
 40 41  1  0
 41 42  4  0
 42 43  4  0
 43 44  4  0
 44 45  4  0
 45 46  4  0
 46 47  4  0
 47 48  4  0
 48 49  4  0
 49 50  4  0
 50 51  4  0
 51 52  4  0
 52 53  4  0
 53 54  4  0
 54 55  4  0
 55 56  4  0
 56 57  4  0
 57 58  4  0
 58 59  4  0
 59 60  4  0
 60 61  4  0
 61 62  4  0
  6  1  4  0
 21  8  4  0
 40 23  4  0
 62 41  4  0
 22  4  4  0
 38 25  4  0
 55 42  4  0
 62 57  4  0
 19 10  4  0
 36 27  4  0
 53 44  4  0
 17 12  4  0
 34 29  4  0
 51 46  4  0
  1 63  1  0
  2 64  1  0
  3 65  1  0
  6 66  1  0
  7 67  1  0
  9 68  1  0
 11 69  1  0
 13 70  1  0
 14 71  1  0
 15 72  1  0
 16 73  1  0
 18 74  1  0
 20 75  1  0
 24 76  1  0
 26 77  1  0
 28 78  1  0
 30 79  1  0
 31 80  1  0
 32 81  1  0
 33 82  1  0
 35 83  1  0
 37 84  1  0
 39 85  1  0
 43 86  1  0
 45 87  1  0
 47 88  1  0
 48 89  1  0
 49 90  1  0
 50 91  1  0
 52 92  1  0
 54 93  1  0
 56 94  1  0
 58 95  1  0
 59 96  1  0
 60 97  1  0
 61 98  1  0
M  END
