
     RDKit          3D

 98111  0  0  0  0  0  0  0  0999 V2000
  -12.1669   -2.8463    3.0236 C   0  0  0  0  0  0  0  0  0  0  0  0
  -12.9833   -1.9985    2.2824 C   0  0  0  0  0  0  0  0  0  0  0  0
  -12.4273   -1.1878    1.2916 C   0  0  0  0  0  0  0  0  0  0  0  0
  -11.0464   -1.2145    1.0292 C   0  0  0  0  0  0  0  0  0  0  0  0
  -10.4650   -0.4044    0.0344 C   0  0  0  0  0  0  0  0  0  0  0  0
   -9.0736   -0.4056   -0.2563 C   0  0  0  0  0  0  0  0  0  0  0  0
   -8.2763   -1.2785    0.5161 C   0  0  0  0  0  0  0  0  0  0  0  0
   -8.8490   -2.0913    1.5111 C   0  0  0  0  0  0  0  0  0  0  0  0
  -10.2236   -2.0713    1.7788 C   0  0  0  0  0  0  0  0  0  0  0  0
  -10.7946   -2.8832    2.7738 C   0  0  0  0  0  0  0  0  0  0  0  0
   -6.9001   -1.3409    0.2944 C   0  0  0  0  0  0  0  0  0  0  0  0
   -6.2688   -0.5561   -0.6813 C   0  0  0  0  0  0  0  0  0  0  0  0
   -4.8107   -0.7025   -0.8345 C   0  0  0  0  0  0  0  0  0  0  0  0
   -4.2766   -1.6167   -1.7504 C   0  0  0  0  0  0  0  0  0  0  0  0
   -2.8939   -1.7593   -1.8903 C   0  0  0  0  0  0  0  0  0  0  0  0
   -2.0117   -0.9930   -1.1138 C   0  0  0  0  0  0  0  0  0  0  0  0
   -0.6193   -1.1262   -1.2419 C   0  0  0  0  0  0  0  0  0  0  0  0
    0.2647   -0.3601   -0.4637 C   0  0  0  0  0  0  0  0  0  0  0  0
    1.6575   -0.4941   -0.5919 C   0  0  0  0  0  0  0  0  0  0  0  0
    2.5420    0.2716    0.1855 C   0  0  0  0  0  0  0  0  0  0  0  0
    3.9352    0.1374    0.0570 C   0  0  0  0  0  0  0  0  0  0  0  0
    4.8179    0.9011    0.8371 C   0  0  0  0  0  0  0  0  0  0  0  0
    6.2753    0.7490    0.6875 C   0  0  0  0  0  0  0  0  0  0  0  0
    6.9169    1.5536   -0.2648 C   0  0  0  0  0  0  0  0  0  0  0  0
    8.2934    1.4849   -0.4821 C   0  0  0  0  0  0  0  0  0  0  0  0
    8.8770    2.3191   -1.4527 C   0  0  0  0  0  0  0  0  0  0  0  0
   10.2524    2.2945   -1.7154 C   0  0  0  0  0  0  0  0  0  0  0  0
   10.8340    3.1285   -2.6859 C   0  0  0  0  0  0  0  0  0  0  0  0
   12.2069    3.0869   -2.9317 C   0  0  0  0  0  0  0  0  0  0  0  0
   13.0132    2.2123   -2.2105 C   0  0  0  0  0  0  0  0  0  0  0  0
   12.4464    1.3796   -1.2440 C   0  0  0  0  0  0  0  0  0  0  0  0
   11.0646    1.4106   -0.9860 C   0  0  0  0  0  0  0  0  0  0  0  0
   10.4720    0.5789   -0.0155 C   0  0  0  0  0  0  0  0  0  0  0  0
    9.0796    0.5844    0.2698 C   0  0  0  0  0  0  0  0  0  0  0  0
    8.4417   -0.2548    1.2560 C   0  0  0  0  0  0  0  0  0  0  0  0
    9.1534   -1.1883    2.0568 C   0  0  0  0  0  0  0  0  0  0  0  0
    8.5400   -2.0111    3.0189 C   0  0  0  0  0  0  0  0  0  0  0  0
    9.2763   -2.9247    3.7942 C   0  0  0  0  0  0  0  0  0  0  0  0
    8.6447   -3.7312    4.7426 C   0  0  0  0  0  0  0  0  0  0  0  0
    7.2697   -3.6350    4.9280 C   0  0  0  0  0  0  0  0  0  0  0  0
    6.5283   -2.7323    4.1650 C   0  0  0  0  0  0  0  0  0  0  0  0
    7.1548   -1.9154    3.2076 C   0  0  0  0  0  0  0  0  0  0  0  0
    6.4303   -1.0014    2.4301 C   0  0  0  0  0  0  0  0  0  0  0  0
    7.0369   -0.1664    1.4580 C   0  0  0  0  0  0  0  0  0  0  0  0
    4.2851    1.8159    1.7532 C   0  0  0  0  0  0  0  0  0  0  0  0
    2.9027    1.9606    1.8917 C   0  0  0  0  0  0  0  0  0  0  0  0
    2.0201    1.1946    1.1150 C   0  0  0  0  0  0  0  0  0  0  0  0
    0.6280    1.3278    1.2434 C   0  0  0  0  0  0  0  0  0  0  0  0
   -0.2566    0.5620    0.4650 C   0  0  0  0  0  0  0  0  0  0  0  0
   -1.6498    0.6960    0.5928 C   0  0  0  0  0  0  0  0  0  0  0  0
   -2.5344   -0.0700   -0.1846 C   0  0  0  0  0  0  0  0  0  0  0  0
   -3.9282    0.0632   -0.0560 C   0  0  0  0  0  0  0  0  0  0  0  0
   -7.0420    0.3323   -1.4720 C   0  0  0  0  0  0  0  0  0  0  0  0
   -6.4477    1.1491   -2.4669 C   0  0  0  0  0  0  0  0  0  0  0  0
   -7.1851    2.0347   -3.2653 C   0  0  0  0  0  0  0  0  0  0  0  0
   -6.5716    2.8338   -4.2457 C   0  0  0  0  0  0  0  0  0  0  0  0
   -7.3262    3.7075   -5.0294 C   0  0  0  0  0  0  0  0  0  0  0  0
   -8.7018    3.7923   -4.8425 C   0  0  0  0  0  0  0  0  0  0  0  0
   -9.3207    3.0035   -3.8715 C   0  0  0  0  0  0  0  0  0  0  0  0
   -8.5708    2.1196   -3.0750 C   0  0  0  0  0  0  0  0  0  0  0  0
   -9.1717    1.3160   -2.0897 C   0  0  0  0  0  0  0  0  0  0  0  0
   -8.4471    0.4122   -1.2670 C   0  0  0  0  0  0  0  0  0  0  0  0
  -12.5962   -3.4790    3.7960 H   0  0  0  0  0  0  0  0  0  0  0  0
  -14.0526   -1.9665    2.4737 H   0  0  0  0  0  0  0  0  0  0  0  0
  -13.0823   -0.5315    0.7228 H   0  0  0  0  0  0  0  0  0  0  0  0
  -11.1339    0.2448   -0.5236 H   0  0  0  0  0  0  0  0  0  0  0  0
   -8.2102   -2.7554    2.0919 H   0  0  0  0  0  0  0  0  0  0  0  0
  -10.1710   -3.5519    3.3629 H   0  0  0  0  0  0  0  0  0  0  0  0
   -6.2891   -2.0179    0.8921 H   0  0  0  0  0  0  0  0  0  0  0  0
   -4.9396   -2.2235   -2.3643 H   0  0  0  0  0  0  0  0  0  0  0  0
   -2.5129   -2.4770   -2.6135 H   0  0  0  0  0  0  0  0  0  0  0  0
   -0.2169   -1.8390   -1.9598 H   0  0  0  0  0  0  0  0  0  0  0  0
    2.0608   -1.2072   -1.3091 H   0  0  0  0  0  0  0  0  0  0  0  0
    4.3470   -0.5739   -0.6579 H   0  0  0  0  0  0  0  0  0  0  0  0
    6.3138    2.2502   -0.8476 H   0  0  0  0  0  0  0  0  0  0  0  0
    8.2463    3.0041   -2.0178 H   0  0  0  0  0  0  0  0  0  0  0  0
   10.2177    3.8181   -3.2584 H   0  0  0  0  0  0  0  0  0  0  0  0
   12.6446    3.7365   -3.6850 H   0  0  0  0  0  0  0  0  0  0  0  0
   14.0830    2.1765   -2.3985 H   0  0  0  0  0  0  0  0  0  0  0  0
   13.0936    0.7027   -0.6908 H   0  0  0  0  0  0  0  0  0  0  0  0
   11.1327   -0.0908    0.5278 H   0  0  0  0  0  0  0  0  0  0  0  0
   10.2286   -1.2921    1.9396 H   0  0  0  0  0  0  0  0  0  0  0  0
   10.3524   -3.0144    3.6632 H   0  0  0  0  0  0  0  0  0  0  0  0
    9.2266   -4.4326    5.3344 H   0  0  0  0  0  0  0  0  0  0  0  0
    6.7730   -4.2606    5.6647 H   0  0  0  0  0  0  0  0  0  0  0  0
    5.4536   -2.6690    4.3217 H   0  0  0  0  0  0  0  0  0  0  0  0
    5.3545   -0.9428    2.5913 H   0  0  0  0  0  0  0  0  0  0  0  0
    4.9493    2.4205    2.3681 H   0  0  0  0  0  0  0  0  0  0  0  0
    2.5208    2.6791    2.6135 H   0  0  0  0  0  0  0  0  0  0  0  0
    0.2259    2.0402    1.9616 H   0  0  0  0  0  0  0  0  0  0  0  0
   -2.0531    1.4090    1.3099 H   0  0  0  0  0  0  0  0  0  0  0  0
   -4.3405    0.7745    0.6585 H   0  0  0  0  0  0  0  0  0  0  0  0
   -5.3717    1.0987   -2.6300 H   0  0  0  0  0  0  0  0  0  0  0  0
   -5.4966    2.7791   -4.4041 H   0  0  0  0  0  0  0  0  0  0  0  0
   -6.8386    4.3191   -5.7839 H   0  0  0  0  0  0  0  0  0  0  0  0
   -9.2941    4.4707   -5.4508 H   0  0  0  0  0  0  0  0  0  0  0  0
  -10.3974    3.0831   -3.7396 H   0  0  0  0  0  0  0  0  0  0  0  0
  -10.2477    1.4107   -1.9721 H   0  0  0  0  0  0  0  0  0  0  0  0
  1  2  4  0
  2  3  4  0
  3  4  4  0
  4  5  4  0
  5  6  4  0
  6  7  4  0
  7  8  4  0
  8  9  4  0
  9 10  4  0
  7 11  4  0
 11 12  4  0
 12 13  1  0
 13 14  4  0
 14 15  4  0
 15 16  4  0
 16 17  4  0
 17 18  4  0
 18 19  4  0
 19 20  4  0
 20 21  4  0
 21 22  4  0
 22 23  1  0
 23 24  4  0
 24 25  4  0
 25 26  4  0
 26 27  4  0
 27 28  4  0
 28 29  4  0
 29 30  4  0
 30 31  4  0
 31 32  4  0
 32 33  4  0
 33 34  4  0
 34 35  4  0
 35 36  4  0
 36 37  4  0
 37 38  4  0
 38 39  4  0
 39 40  4  0
 40 41  4  0
 41 42  4  0
 42 43  4  0
 43 44  4  0
 22 45  4  0
 45 46  4  0
 46 47  4  0
 47 48  4  0
 48 49  4  0
 49 50  4  0
 50 51  4  0
 51 52  4  0
 12 53  4  0
 53 54  4  0
 54 55  4  0
 55 56  4  0
 56 57  4  0
 57 58  4  0
 58 59  4  0
 59 60  4  0
 60 61  4  0
 61 62  4  0
 10  1  4  0
 52 13  4  0
 62 53  4  0
  9  4  4  0
 51 16  4  0
 60 55  4  0
 62  6  4  0
 49 18  4  0
 47 20  4  0
 44 23  4  0
 34 25  4  0
 44 35  4  0
 32 27  4  0
 42 37  4  0
  1 63  1  0
  2 64  1  0
  3 65  1  0
  5 66  1  0
  8 67  1  0
 10 68  1  0
 11 69  1  0
 14 70  1  0
 15 71  1  0
 17 72  1  0
 19 73  1  0
 21 74  1  0
 24 75  1  0
 26 76  1  0
 28 77  1  0
 29 78  1  0
 30 79  1  0
 31 80  1  0
 33 81  1  0
 36 82  1  0
 38 83  1  0
 39 84  1  0
 40 85  1  0
 41 86  1  0
 43 87  1  0
 45 88  1  0
 46 89  1  0
 48 90  1  0
 50 91  1  0
 52 92  1  0
 54 93  1  0
 56 94  1  0
 57 95  1  0
 58 96  1  0
 59 97  1  0
 61 98  1  0
M  END
