
     RDKit          3D

 98111  0  0  0  0  0  0  0  0999 V2000
   -8.4845   -3.7927   -3.0929 C   0  0  0  0  0  0  0  0  0  0  0  0
   -7.1750   -3.3277   -3.1563 C   0  0  0  0  0  0  0  0  0  0  0  0
   -6.7801   -2.2500   -2.3618 C   0  0  0  0  0  0  0  0  0  0  0  0
   -7.6900   -1.6224   -1.4934 C   0  0  0  0  0  0  0  0  0  0  0  0
   -7.3099   -0.5340   -0.6846 C   0  0  0  0  0  0  0  0  0  0  0  0
   -8.2050    0.1201    0.2019 C   0  0  0  0  0  0  0  0  0  0  0  0
   -9.5303   -0.3781    0.2430 C   0  0  0  0  0  0  0  0  0  0  0  0
   -9.9151   -1.4642   -0.5626 C   0  0  0  0  0  0  0  0  0  0  0  0
   -9.0129   -2.0936   -1.4307 C   0  0  0  0  0  0  0  0  0  0  0  0
   -9.3988   -3.1797   -2.2353 C   0  0  0  0  0  0  0  0  0  0  0  0
  -10.4700    0.2116    1.0917 C   0  0  0  0  0  0  0  0  0  0  0  0
  -10.1219    1.2868    1.9035 C   0  0  0  0  0  0  0  0  0  0  0  0
   -8.8241    1.8045    1.8901 C   0  0  0  0  0  0  0  0  0  0  0  0
   -8.5042    2.8901    2.7217 C   0  0  0  0  0  0  0  0  0  0  0  0
   -7.2195    3.4508    2.7518 C   0  0  0  0  0  0  0  0  0  0  0  0
   -6.9402    4.5370    3.5964 C   0  0  0  0  0  0  0  0  0  0  0  0
   -5.6705    5.1047    3.6359 C   0  0  0  0  0  0  0  0  0  0  0  0
   -4.6615    4.5900    2.8299 C   0  0  0  0  0  0  0  0  0  0  0  0
   -4.9051    3.5009    1.9726 C   0  0  0  0  0  0  0  0  0  0  0  0
   -3.7896    3.0019    1.1520 C   0  0  0  0  0  0  0  0  0  0  0  0
   -3.4446    3.6369   -0.0469 C   0  0  0  0  0  0  0  0  0  0  0  0
   -2.3888    3.1592   -0.8275 C   0  0  0  0  0  0  0  0  0  0  0  0
   -1.6517    2.0345   -0.4268 C   0  0  0  0  0  0  0  0  0  0  0  0
   -0.5896    1.5404   -1.2020 C   0  0  0  0  0  0  0  0  0  0  0  0
    0.1461    0.4121   -0.8022 C   0  0  0  0  0  0  0  0  0  0  0  0
    1.2072   -0.0830   -1.5789 C   0  0  0  0  0  0  0  0  0  0  0  0
    1.9439   -1.2103   -1.1796 C   0  0  0  0  0  0  0  0  0  0  0  0
    3.0080   -1.7027   -1.9549 C   0  0  0  0  0  0  0  0  0  0  0  0
    3.7488   -2.8246   -1.5510 C   0  0  0  0  0  0  0  0  0  0  0  0
    4.8723   -3.3145   -2.3652 C   0  0  0  0  0  0  0  0  0  0  0  0
    6.1946   -2.7974   -2.2252 C   0  0  0  0  0  0  0  0  0  0  0  0
    6.5489   -1.7823   -1.2988 C   0  0  0  0  0  0  0  0  0  0  0  0
    7.8614   -1.2612   -1.1525 C   0  0  0  0  0  0  0  0  0  0  0  0
    8.8515   -1.8111   -1.9965 C   0  0  0  0  0  0  0  0  0  0  0  0
    8.5230   -2.8172   -2.9200 C   0  0  0  0  0  0  0  0  0  0  0  0
    7.2181   -3.3150   -3.0449 C   0  0  0  0  0  0  0  0  0  0  0  0
    6.9288   -4.3230   -3.9785 C   0  0  0  0  0  0  0  0  0  0  0  0
    5.6381   -4.8261   -4.1111 C   0  0  0  0  0  0  0  0  0  0  0  0
    4.6181   -4.3252   -3.3101 C   0  0  0  0  0  0  0  0  0  0  0  0
   10.1696   -1.3546   -1.9153 C   0  0  0  0  0  0  0  0  0  0  0  0
   10.5258   -0.3601   -1.0096 C   0  0  0  0  0  0  0  0  0  0  0  0
    9.5745    0.2080   -0.1589 C   0  0  0  0  0  0  0  0  0  0  0  0
    9.9683    1.2107    0.7445 C   0  0  0  0  0  0  0  0  0  0  0  0
    9.0552    1.8145    1.6193 C   0  0  0  0  0  0  0  0  0  0  0  0
    9.4506    2.8166    2.5220 C   0  0  0  0  0  0  0  0  0  0  0  0
    8.5255    3.4058    3.3846 C   0  0  0  0  0  0  0  0  0  0  0  0
    7.1951    3.0006    3.3549 C   0  0  0  0  0  0  0  0  0  0  0  0
    6.7903    2.0061    2.4627 C   0  0  0  0  0  0  0  0  0  0  0  0
    7.7113    1.4035    1.5883 C   0  0  0  0  0  0  0  0  0  0  0  0
    7.3224    0.3986    0.6818 C   0  0  0  0  0  0  0  0  0  0  0  0
    8.2285   -0.2286   -0.2132 C   0  0  0  0  0  0  0  0  0  0  0  0
    3.4033   -3.4613   -0.3533 C   0  0  0  0  0  0  0  0  0  0  0  0
    2.3474   -2.9843    0.4272 C   0  0  0  0  0  0  0  0  0  0  0  0
    1.6104   -1.8594    0.0269 C   0  0  0  0  0  0  0  0  0  0  0  0
    0.5490   -1.3649    0.8026 C   0  0  0  0  0  0  0  0  0  0  0  0
   -0.1872   -0.2368    0.4029 C   0  0  0  0  0  0  0  0  0  0  0  0
   -1.2487    0.2583    1.1792 C   0  0  0  0  0  0  0  0  0  0  0  0
   -1.9854    1.3857    0.7797 C   0  0  0  0  0  0  0  0  0  0  0  0
   -3.0486    1.8796    1.5556 C   0  0  0  0  0  0  0  0  0  0  0  0
   -6.2073    2.9184    1.9271 C   0  0  0  0  0  0  0  0  0  0  0  0
   -6.5543    1.8248    1.0909 C   0  0  0  0  0  0  0  0  0  0  0  0
   -7.8462    1.2365    1.0440 C   0  0  0  0  0  0  0  0  0  0  0  0
   -8.7958   -4.6317   -3.7096 H   0  0  0  0  0  0  0  0  0  0  0  0
   -6.4591   -3.8015   -3.8226 H   0  0  0  0  0  0  0  0  0  0  0  0
   -5.7516   -1.9009   -2.4249 H   0  0  0  0  0  0  0  0  0  0  0  0
   -6.2790   -0.1966   -0.7583 H   0  0  0  0  0  0  0  0  0  0  0  0
  -10.9399   -1.8291   -0.5135 H   0  0  0  0  0  0  0  0  0  0  0  0
  -10.4185   -3.5563   -2.1985 H   0  0  0  0  0  0  0  0  0  0  0  0
  -11.4916   -0.1613    1.1320 H   0  0  0  0  0  0  0  0  0  0  0  0
  -10.8833    1.7175    2.5505 H   0  0  0  0  0  0  0  0  0  0  0  0
   -9.2776    3.3101    3.3636 H   0  0  0  0  0  0  0  0  0  0  0  0
   -7.7176    4.9523    4.2346 H   0  0  0  0  0  0  0  0  0  0  0  0
   -5.4679    5.9450    4.2944 H   0  0  0  0  0  0  0  0  0  0  0  0
   -3.6702    5.0383    2.8711 H   0  0  0  0  0  0  0  0  0  0  0  0
   -4.0044    4.5076   -0.3829 H   0  0  0  0  0  0  0  0  0  0  0  0
   -2.1491    3.6737   -1.7555 H   0  0  0  0  0  0  0  0  0  0  0  0
   -0.3311    2.0429   -2.1327 H   0  0  0  0  0  0  0  0  0  0  0  0
    1.4645    0.4182   -2.5105 H   0  0  0  0  0  0  0  0  0  0  0  0
    3.2749   -1.2036   -2.8855 H   0  0  0  0  0  0  0  0  0  0  0  0
    5.7590   -1.3873   -0.6657 H   0  0  0  0  0  0  0  0  0  0  0  0
    9.3057   -3.2246   -3.5587 H   0  0  0  0  0  0  0  0  0  0  0  0
    7.7144   -4.7268   -4.6140 H   0  0  0  0  0  0  0  0  0  0  0  0
    5.4277   -5.6064   -4.8376 H   0  0  0  0  0  0  0  0  0  0  0  0
    3.6113   -4.7238   -3.4222 H   0  0  0  0  0  0  0  0  0  0  0  0
   10.9408   -1.7708   -2.5603 H   0  0  0  0  0  0  0  0  0  0  0  0
   11.5631   -0.0330   -0.9777 H   0  0  0  0  0  0  0  0  0  0  0  0
   11.0093    1.5295    0.7680 H   0  0  0  0  0  0  0  0  0  0  0  0
   10.4866    3.1452    2.5582 H   0  0  0  0  0  0  0  0  0  0  0  0
    8.8445    4.1797    4.0775 H   0  0  0  0  0  0  0  0  0  0  0  0
    6.4710    3.4569    4.0245 H   0  0  0  0  0  0  0  0  0  0  0  0
    5.7455    1.7027    2.4539 H   0  0  0  0  0  0  0  0  0  0  0  0
    6.2756    0.1056    0.6845 H   0  0  0  0  0  0  0  0  0  0  0  0
    3.9639   -4.3315   -0.0174 H   0  0  0  0  0  0  0  0  0  0  0  0
    2.1080   -3.4988    1.3552 H   0  0  0  0  0  0  0  0  0  0  0  0
    0.2922   -1.8661    1.7343 H   0  0  0  0  0  0  0  0  0  0  0  0
   -1.5083   -0.2435    2.1099 H   0  0  0  0  0  0  0  0  0  0  0  0
   -3.3129    1.3834    2.4887 H   0  0  0  0  0  0  0  0  0  0  0  0
   -5.7759    1.4217    0.4488 H   0  0  0  0  0  0  0  0  0  0  0  0
  1  2  4  0
  2  3  4  0
  3  4  4  0
  4  5  4  0
  5  6  4  0
  6  7  4  0
  7  8  4  0
  8  9  4  0
  9 10  4  0
  7 11  4  0
 11 12  4  0
 12 13  4  0
 13 14  4  0
 14 15  4  0
 15 16  4  0
 16 17  4  0
 17 18  4  0
 18 19  4  0
 19 20  1  0
 20 21  4  0
 21 22  4  0
 22 23  4  0
 23 24  4  0
 24 25  4  0
 25 26  4  0
 26 27  4  0
 27 28  4  0
 28 29  4  0
 29 30  1  0
 30 31  4  0
 31 32  4  0
 32 33  4  0
 33 34  4  0
 34 35  4  0
 35 36  4  0
 36 37  4  0
 37 38  4  0
 38 39  4  0
 34 40  4  0
 40 41  4  0
 41 42  4  0
 42 43  4  0
 43 44  4  0
 44 45  4  0
 45 46  4  0
 46 47  4  0
 47 48  4  0
 48 49  4  0
 49 50  4  0
 50 51  4  0
 29 52  4  0
 52 53  4  0
 53 54  4  0
 54 55  4  0
 55 56  4  0
 56 57  4  0
 57 58  4  0
 58 59  4  0
 19 60  4  0
 60 61  4  0
 61 62  4  0
 10  1  4  0
 62 13  4  0
  9  4  4  0
 60 15  4  0
 62  6  4  0
 59 20  4  0
 58 23  4  0
 56 25  4  0
 54 27  4  0
 39 30  4  0
 51 42  4  0
 36 31  4  0
 49 44  4  0
 51 33  4  0
  1 63  1  0
  2 64  1  0
  3 65  1  0
  5 66  1  0
  8 67  1  0
 10 68  1  0
 11 69  1  0
 12 70  1  0
 14 71  1  0
 16 72  1  0
 17 73  1  0
 18 74  1  0
 21 75  1  0
 22 76  1  0
 24 77  1  0
 26 78  1  0
 28 79  1  0
 32 80  1  0
 35 81  1  0
 37 82  1  0
 38 83  1  0
 39 84  1  0
 40 85  1  0
 41 86  1  0
 43 87  1  0
 45 88  1  0
 46 89  1  0
 47 90  1  0
 48 91  1  0
 50 92  1  0
 52 93  1  0
 53 94  1  0
 55 95  1  0
 57 96  1  0
 59 97  1  0
 61 98  1  0
M  END
