
     RDKit          3D

 98111  0  0  0  0  0  0  0  0999 V2000
    6.6506   -4.9540   -0.9798 C   0  0  0  0  0  0  0  0  0  0  0  0
    5.4065   -4.5024   -0.5523 C   0  0  0  0  0  0  0  0  0  0  0  0
    5.2208   -3.1500   -0.2604 C   0  0  0  0  0  0  0  0  0  0  0  0
    6.2775   -2.2311   -0.3917 C   0  0  0  0  0  0  0  0  0  0  0  0
    6.1120   -0.8591   -0.1021 C   0  0  0  0  0  0  0  0  0  0  0  0
    7.1346    0.1257   -0.2166 C   0  0  0  0  0  0  0  0  0  0  0  0
    8.3819   -0.3959   -0.6591 C   0  0  0  0  0  0  0  0  0  0  0  0
    8.5649   -1.7609   -0.9494 C   0  0  0  0  0  0  0  0  0  0  0  0
    7.5279   -2.6886   -0.8226 C   0  0  0  0  0  0  0  0  0  0  0  0
    7.7068   -4.0525   -1.1147 C   0  0  0  0  0  0  0  0  0  0  0  0
    9.4757    0.4430   -0.8218 C   0  0  0  0  0  0  0  0  0  0  0  0
    9.3702    1.7977   -0.5592 C   0  0  0  0  0  0  0  0  0  0  0  0
    8.1716    2.3629   -0.1241 C   0  0  0  0  0  0  0  0  0  0  0  0
    8.1918    3.7443    0.1052 C   0  0  0  0  0  0  0  0  0  0  0  0
    7.0729    4.4482    0.5403 C   0  0  0  0  0  0  0  0  0  0  0  0
    7.1567    5.8379    0.7507 C   0  0  0  0  0  0  0  0  0  0  0  0
    6.0548    6.5682    1.1856 C   0  0  0  0  0  0  0  0  0  0  0  0
    4.8556    5.9149    1.4148 C   0  0  0  0  0  0  0  0  0  0  0  0
    4.7686    4.5353    1.2076 C   0  0  0  0  0  0  0  0  0  0  0  0
    5.8729    3.7552    0.7640 C   0  0  0  0  0  0  0  0  0  0  0  0
    5.8349    2.3258    0.5353 C   0  0  0  0  0  0  0  0  0  0  0  0
    4.5433    1.6594    0.8020 C   0  0  0  0  0  0  0  0  0  0  0  0
    4.2402    1.1776    2.0839 C   0  0  0  0  0  0  0  0  0  0  0  0
    3.0081    0.5735    2.3427 C   0  0  0  0  0  0  0  0  0  0  0  0
    2.0477    0.4419    1.3285 C   0  0  0  0  0  0  0  0  0  0  0  0
    0.8063   -0.1658    1.5741 C   0  0  0  0  0  0  0  0  0  0  0  0
   -0.1581   -0.2962    0.5611 C   0  0  0  0  0  0  0  0  0  0  0  0
   -1.4023   -0.8988    0.8097 C   0  0  0  0  0  0  0  0  0  0  0  0
   -2.3695   -1.0225   -0.2000 C   0  0  0  0  0  0  0  0  0  0  0  0
   -3.6187   -1.6128    0.0539 C   0  0  0  0  0  0  0  0  0  0  0  0
   -4.5996   -1.7025   -0.9494 C   0  0  0  0  0  0  0  0  0  0  0  0
   -5.9113   -2.3209   -0.6662 C   0  0  0  0  0  0  0  0  0  0  0  0
   -7.0281   -1.5363   -0.1366 C   0  0  0  0  0  0  0  0  0  0  0  0
   -8.2195   -2.2798    0.0892 C   0  0  0  0  0  0  0  0  0  0  0  0
   -8.3093   -3.6504   -0.1843 C   0  0  0  0  0  0  0  0  0  0  0  0
   -7.2404   -4.3861   -0.6882 C   0  0  0  0  0  0  0  0  0  0  0  0
   -7.3925   -5.7631   -0.9389 C   0  0  0  0  0  0  0  0  0  0  0  0
   -6.3398   -6.5253   -1.4367 C   0  0  0  0  0  0  0  0  0  0  0  0
   -5.1214   -5.9170   -1.6878 C   0  0  0  0  0  0  0  0  0  0  0  0
   -4.9664   -4.5501   -1.4410 C   0  0  0  0  0  0  0  0  0  0  0  0
   -6.0200   -3.7385   -0.9359 C   0  0  0  0  0  0  0  0  0  0  0  0
   -9.3703   -1.6802    0.6012 C   0  0  0  0  0  0  0  0  0  0  0  0
   -9.4029   -0.3328    0.9171 C   0  0  0  0  0  0  0  0  0  0  0  0
   -8.2839    0.4657    0.7248 C   0  0  0  0  0  0  0  0  0  0  0  0
   -8.3904    1.8262    1.0711 C   0  0  0  0  0  0  0  0  0  0  0  0
   -7.3223    2.7138    0.9155 C   0  0  0  0  0  0  0  0  0  0  0  0
   -7.4215    4.0719    1.2661 C   0  0  0  0  0  0  0  0  0  0  0  0
   -6.3357    4.9321    1.0983 C   0  0  0  0  0  0  0  0  0  0  0  0
   -5.1411    4.4448    0.5788 C   0  0  0  0  0  0  0  0  0  0  0  0
   -5.0343    3.0984    0.2278 C   0  0  0  0  0  0  0  0  0  0  0  0
   -6.1216    2.2216    0.3923 C   0  0  0  0  0  0  0  0  0  0  0  0
   -6.0342    0.8565    0.0456 C   0  0  0  0  0  0  0  0  0  0  0  0
   -7.0862   -0.0911    0.1968 C   0  0  0  0  0  0  0  0  0  0  0  0
   -4.2961   -1.2269   -2.2336 C   0  0  0  0  0  0  0  0  0  0  0  0
   -3.0530   -0.6497   -2.5014 C   0  0  0  0  0  0  0  0  0  0  0  0
   -2.0846   -0.5343   -1.4926 C   0  0  0  0  0  0  0  0  0  0  0  0
   -0.8386    0.0624   -1.7421 C   0  0  0  0  0  0  0  0  0  0  0  0
    0.1274    0.1904   -0.7300 C   0  0  0  0  0  0  0  0  0  0  0  0
    1.3705    0.7965   -0.9769 C   0  0  0  0  0  0  0  0  0  0  0  0
    2.3332    0.9310    0.0363 C   0  0  0  0  0  0  0  0  0  0  0  0
    3.5747    1.5411   -0.2104 C   0  0  0  0  0  0  0  0  0  0  0  0
    7.0030    1.5756    0.0726 C   0  0  0  0  0  0  0  0  0  0  0  0
    6.8001   -6.0054   -1.2095 H   0  0  0  0  0  0  0  0  0  0  0  0
    4.5792   -5.1992   -0.4467 H   0  0  0  0  0  0  0  0  0  0  0  0
    4.2402   -2.8128    0.0705 H   0  0  0  0  0  0  0  0  0  0  0  0
    5.1209   -0.5820    0.2251 H   0  0  0  0  0  0  0  0  0  0  0  0
    9.5398   -2.1120   -1.2850 H   0  0  0  0  0  0  0  0  0  0  0  0
    8.6732   -4.4204   -1.4511 H   0  0  0  0  0  0  0  0  0  0  0  0
   10.4346    0.0546   -1.1594 H   0  0  0  0  0  0  0  0  0  0  0  0
   10.2571    2.4128   -0.7042 H   0  0  0  0  0  0  0  0  0  0  0  0
    9.1166    4.2974   -0.0623 H   0  0  0  0  0  0  0  0  0  0  0  0
    8.0921    6.3656    0.5750 H   0  0  0  0  0  0  0  0  0  0  0  0
    6.1359    7.6399    1.3433 H   0  0  0  0  0  0  0  0  0  0  0  0
    3.9840    6.4683    1.7540 H   0  0  0  0  0  0  0  0  0  0  0  0
    3.8049    4.0672    1.4011 H   0  0  0  0  0  0  0  0  0  0  0  0
    4.9697    1.2701    2.8863 H   0  0  0  0  0  0  0  0  0  0  0  0
    2.8066    0.2055    3.3464 H   0  0  0  0  0  0  0  0  0  0  0  0
    0.5856   -0.5419    2.5716 H   0  0  0  0  0  0  0  0  0  0  0  0
   -1.6251   -1.2714    1.8082 H   0  0  0  0  0  0  0  0  0  0  0  0
   -3.8490   -1.9925    1.0486 H   0  0  0  0  0  0  0  0  0  0  0  0
   -9.2492   -4.1696    0.0056 H   0  0  0  0  0  0  0  0  0  0  0  0
   -8.3432   -6.2554   -0.7442 H   0  0  0  0  0  0  0  0  0  0  0  0
   -6.4725   -7.5869   -1.6246 H   0  0  0  0  0  0  0  0  0  0  0  0
   -4.2873   -6.4963   -2.0743 H   0  0  0  0  0  0  0  0  0  0  0  0
   -3.9895   -4.1183   -1.6516 H   0  0  0  0  0  0  0  0  0  0  0  0
  -10.2753   -2.2624    0.7695 H   0  0  0  0  0  0  0  0  0  0  0  0
  -10.3255    0.0826    1.3177 H   0  0  0  0  0  0  0  0  0  0  0  0
   -9.3283    2.2056    1.4747 H   0  0  0  0  0  0  0  0  0  0  0  0
   -8.3487    4.4670    1.6743 H   0  0  0  0  0  0  0  0  0  0  0  0
   -6.4240    5.9793    1.3740 H   0  0  0  0  0  0  0  0  0  0  0  0
   -4.2911    5.1087    0.4470 H   0  0  0  0  0  0  0  0  0  0  0  0
   -4.0912    2.7322   -0.1741 H   0  0  0  0  0  0  0  0  0  0  0  0
   -5.0819    0.5545   -0.3629 H   0  0  0  0  0  0  0  0  0  0  0  0
   -5.0352   -1.2993   -3.0294 H   0  0  0  0  0  0  0  0  0  0  0  0
   -2.8512   -0.2833   -3.5056 H   0  0  0  0  0  0  0  0  0  0  0  0
   -0.6189    0.4380   -2.7400 H   0  0  0  0  0  0  0  0  0  0  0  0
    1.5934    1.1707   -1.9748 H   0  0  0  0  0  0  0  0  0  0  0  0
    3.8036    1.9258   -1.2035 H   0  0  0  0  0  0  0  0  0  0  0  0
  1  2  4  0
  2  3  4  0
  3  4  4  0
  4  5  4  0
  5  6  4  0
  6  7  4  0
  7  8  4  0
  8  9  4  0
  9 10  4  0
  7 11  4  0
 11 12  4  0
 12 13  4  0
 13 14  4  0
 14 15  4  0
 15 16  4  0
 16 17  4  0
 17 18  4  0
 18 19  4  0
 19 20  4  0
 20 21  4  0
 21 22  1  0
 22 23  4  0
 23 24  4  0
 24 25  4  0
 25 26  4  0
 26 27  4  0
 27 28  4  0
 28 29  4  0
 29 30  4  0
 30 31  4  0
 31 32  1  0
 32 33  4  0
 33 34  4  0
 34 35  4  0
 35 36  4  0
 36 37  4  0
 37 38  4  0
 38 39  4  0
 39 40  4  0
 40 41  4  0
 34 42  4  0
 42 43  4  0
 43 44  4  0
 44 45  4  0
 45 46  4  0
 46 47  4  0
 47 48  4  0
 48 49  4  0
 49 50  4  0
 50 51  4  0
 51 52  4  0
 52 53  4  0
 31 54  4  0
 54 55  4  0
 55 56  4  0
 56 57  4  0
 57 58  4  0
 58 59  4  0
 59 60  4  0
 60 61  4  0
 21 62  4  0
 10  1  4  0
 62 13  4  0
  9  4  4  0
 20 15  4  0
 61 22  4  0
 62  6  4  0
 60 25  4  0
 58 27  4  0
 56 29  4  0
 41 32  4  0
 53 44  4  0
 53 33  4  0
 41 36  4  0
 51 46  4  0
  1 63  1  0
  2 64  1  0
  3 65  1  0
  5 66  1  0
  8 67  1  0
 10 68  1  0
 11 69  1  0
 12 70  1  0
 14 71  1  0
 16 72  1  0
 17 73  1  0
 18 74  1  0
 19 75  1  0
 23 76  1  0
 24 77  1  0
 26 78  1  0
 28 79  1  0
 30 80  1  0
 35 81  1  0
 37 82  1  0
 38 83  1  0
 39 84  1  0
 40 85  1  0
 42 86  1  0
 43 87  1  0
 45 88  1  0
 47 89  1  0
 48 90  1  0
 49 91  1  0
 50 92  1  0
 52 93  1  0
 54 94  1  0
 55 95  1  0
 57 96  1  0
 59 97  1  0
 61 98  1  0
M  END
