
     RDKit          3D

 98111  0  0  0  0  0  0  0  0999 V2000
  -14.3782    2.2930    4.9456 C   0  0  0  0  0  0  0  0  0  0  0  0
  -13.0978    1.9509    5.3678 C   0  0  0  0  0  0  0  0  0  0  0  0
  -12.1418    1.5475    4.4342 C   0  0  0  0  0  0  0  0  0  0  0  0
  -12.4540    1.4810    3.0653 C   0  0  0  0  0  0  0  0  0  0  0  0
  -11.5034    1.0764    2.1086 C   0  0  0  0  0  0  0  0  0  0  0  0
  -11.7876    0.9990    0.7202 C   0  0  0  0  0  0  0  0  0  0  0  0
  -13.0999    1.3546    0.3233 C   0  0  0  0  0  0  0  0  0  0  0  0
  -14.0532    1.7590    1.2743 C   0  0  0  0  0  0  0  0  0  0  0  0
  -13.7484    1.8272    2.6403 C   0  0  0  0  0  0  0  0  0  0  0  0
  -14.7025    2.2318    3.5898 C   0  0  0  0  0  0  0  0  0  0  0  0
  -13.4575    1.3051   -1.0261 C   0  0  0  0  0  0  0  0  0  0  0  0
  -12.5392    0.9100   -1.9940 C   0  0  0  0  0  0  0  0  0  0  0  0
  -11.2358    0.5516   -1.6414 C   0  0  0  0  0  0  0  0  0  0  0  0
  -10.3336    0.1575   -2.6449 C   0  0  0  0  0  0  0  0  0  0  0  0
   -9.0154   -0.2127   -2.3465 C   0  0  0  0  0  0  0  0  0  0  0  0
   -8.1158   -0.6044   -3.3491 C   0  0  0  0  0  0  0  0  0  0  0  0
   -6.8053   -0.9706   -3.0297 C   0  0  0  0  0  0  0  0  0  0  0  0
   -6.3577   -0.9578   -1.7023 C   0  0  0  0  0  0  0  0  0  0  0  0
   -4.9795   -1.3475   -1.3643 C   0  0  0  0  0  0  0  0  0  0  0  0
   -4.7248   -2.3711   -0.4416 C   0  0  0  0  0  0  0  0  0  0  0  0
   -3.4153   -2.7453   -0.1254 C   0  0  0  0  0  0  0  0  0  0  0  0
   -2.3216   -2.1033   -0.7235 C   0  0  0  0  0  0  0  0  0  0  0  0
   -1.0001   -2.4680   -0.4172 C   0  0  0  0  0  0  0  0  0  0  0  0
    0.0953   -1.8237   -1.0166 C   0  0  0  0  0  0  0  0  0  0  0  0
    1.4173   -2.1892   -0.7115 C   0  0  0  0  0  0  0  0  0  0  0  0
    2.5131   -1.5457   -1.3106 C   0  0  0  0  0  0  0  0  0  0  0  0
    3.8366   -1.9135   -1.0068 C   0  0  0  0  0  0  0  0  0  0  0  0
    4.9367   -1.2719   -1.6006 C   0  0  0  0  0  0  0  0  0  0  0  0
    6.3137   -1.6732   -1.2740 C   0  0  0  0  0  0  0  0  0  0  0  0
    6.7383   -2.9972   -1.4453 C   0  0  0  0  0  0  0  0  0  0  0  0
    8.0481   -3.3758   -1.1384 C   0  0  0  0  0  0  0  0  0  0  0  0
    8.9695   -2.4378   -0.6492 C   0  0  0  0  0  0  0  0  0  0  0  0
   10.2873   -2.7964   -0.3362 C   0  0  0  0  0  0  0  0  0  0  0  0
   11.2116   -1.8579    0.1549 C   0  0  0  0  0  0  0  0  0  0  0  0
   12.5136   -2.2690    0.4502 C   0  0  0  0  0  0  0  0  0  0  0  0
   13.4538   -1.3665    0.9378 C   0  0  0  0  0  0  0  0  0  0  0  0
   13.1200   -0.0260    1.1452 C   0  0  0  0  0  0  0  0  0  0  0  0
   14.0952    0.8582    1.6389 C   0  0  0  0  0  0  0  0  0  0  0  0
   13.8154    2.2123    1.8659 C   0  0  0  0  0  0  0  0  0  0  0  0
   14.7916    3.0949    2.3595 C   0  0  0  0  0  0  0  0  0  0  0  0
   14.4922    4.4400    2.5786 C   0  0  0  0  0  0  0  0  0  0  0  0
   13.2145    4.9183    2.3073 C   0  0  0  0  0  0  0  0  0  0  0  0
   12.2366    4.0514    1.8169 C   0  0  0  0  0  0  0  0  0  0  0  0
   12.5238    2.6939    1.5910 C   0  0  0  0  0  0  0  0  0  0  0  0
   11.5509    1.8040    1.0964 C   0  0  0  0  0  0  0  0  0  0  0  0
   11.8099    0.4289    0.8580 C   0  0  0  0  0  0  0  0  0  0  0  0
   10.8352   -0.5070    0.3514 C   0  0  0  0  0  0  0  0  0  0  0  0
    9.4953   -0.1699    0.0263 C   0  0  0  0  0  0  0  0  0  0  0  0
    8.5656   -1.1057   -0.4676 C   0  0  0  0  0  0  0  0  0  0  0  0
    7.2429   -0.7401   -0.7830 C   0  0  0  0  0  0  0  0  0  0  0  0
    4.6837   -0.2409   -2.5151 C   0  0  0  0  0  0  0  0  0  0  0  0
    3.3746    0.1354   -2.8305 C   0  0  0  0  0  0  0  0  0  0  0  0
    2.2801   -0.5088   -2.2357 C   0  0  0  0  0  0  0  0  0  0  0  0
    0.9585   -0.1437   -2.5417 C   0  0  0  0  0  0  0  0  0  0  0  0
   -0.1371   -0.7891   -1.9436 C   0  0  0  0  0  0  0  0  0  0  0  0
   -1.4594   -0.4249   -2.2500 C   0  0  0  0  0  0  0  0  0  0  0  0
   -2.5553   -1.0699   -1.6524 C   0  0  0  0  0  0  0  0  0  0  0  0
   -3.8796   -0.7070   -1.9601 C   0  0  0  0  0  0  0  0  0  0  0  0
   -7.2653   -0.5636   -0.7042 C   0  0  0  0  0  0  0  0  0  0  0  0
   -8.5884   -0.1899   -1.0094 C   0  0  0  0  0  0  0  0  0  0  0  0
   -9.4959    0.2075   -0.0082 C   0  0  0  0  0  0  0  0  0  0  0  0
  -10.8355    0.5880   -0.2835 C   0  0  0  0  0  0  0  0  0  0  0  0
  -15.1252    2.6075    5.6696 H   0  0  0  0  0  0  0  0  0  0  0  0
  -12.8411    1.9972    6.4228 H   0  0  0  0  0  0  0  0  0  0  0  0
  -11.1461    1.2841    4.7842 H   0  0  0  0  0  0  0  0  0  0  0  0
  -10.5129    0.8164    2.4717 H   0  0  0  0  0  0  0  0  0  0  0  0
  -15.0558    2.0272    0.9447 H   0  0  0  0  0  0  0  0  0  0  0  0
  -15.7084    2.5029    3.2774 H   0  0  0  0  0  0  0  0  0  0  0  0
  -14.4628    1.5757   -1.3429 H   0  0  0  0  0  0  0  0  0  0  0  0
  -12.8588    0.8855   -3.0339 H   0  0  0  0  0  0  0  0  0  0  0  0
  -10.6640    0.1383   -3.6824 H   0  0  0  0  0  0  0  0  0  0  0  0
   -8.4286   -0.6311   -4.3906 H   0  0  0  0  0  0  0  0  0  0  0  0
   -6.1360   -1.2805   -3.8299 H   0  0  0  0  0  0  0  0  0  0  0  0
   -5.5511   -2.8982    0.0316 H   0  0  0  0  0  0  0  0  0  0  0  0
   -3.2576   -3.5479    0.5919 H   0  0  0  0  0  0  0  0  0  0  0  0
   -0.8211   -3.2670    0.3001 H   0  0  0  0  0  0  0  0  0  0  0  0
    1.5971   -2.9888    0.0050 H   0  0  0  0  0  0  0  0  0  0  0  0
    4.0160   -2.7088   -0.2846 H   0  0  0  0  0  0  0  0  0  0  0  0
    6.0514   -3.7465   -1.8338 H   0  0  0  0  0  0  0  0  0  0  0  0
    8.3435   -4.4118   -1.2887 H   0  0  0  0  0  0  0  0  0  0  0  0
   10.6000   -3.8297   -0.4785 H   0  0  0  0  0  0  0  0  0  0  0  0
   12.8147   -3.3042    0.3029 H   0  0  0  0  0  0  0  0  0  0  0  0
   14.4571   -1.7275    1.1547 H   0  0  0  0  0  0  0  0  0  0  0  0
   15.0957    0.4847    1.8519 H   0  0  0  0  0  0  0  0  0  0  0  0
   15.7958    2.7380    2.5772 H   0  0  0  0  0  0  0  0  0  0  0  0
   15.2562    5.1119    2.9606 H   0  0  0  0  0  0  0  0  0  0  0  0
   12.9769    5.9652    2.4766 H   0  0  0  0  0  0  0  0  0  0  0  0
   11.2434    4.4444    1.6111 H   0  0  0  0  0  0  0  0  0  0  0  0
   10.5632    2.2095    0.8952 H   0  0  0  0  0  0  0  0  0  0  0  0
    9.1503    0.8523    0.1568 H   0  0  0  0  0  0  0  0  0  0  0  0
    6.9254    0.2909   -0.6333 H   0  0  0  0  0  0  0  0  0  0  0  0
    5.5108    0.2720   -3.0025 H   0  0  0  0  0  0  0  0  0  0  0  0
    3.2182    0.9365   -3.5496 H   0  0  0  0  0  0  0  0  0  0  0  0
    0.7797    0.6566   -3.2576 H   0  0  0  0  0  0  0  0  0  0  0  0
   -1.6388    0.3748   -2.9665 H   0  0  0  0  0  0  0  0  0  0  0  0
   -4.0595    0.0985   -2.6708 H   0  0  0  0  0  0  0  0  0  0  0  0
   -6.9303   -0.5368    0.3318 H   0  0  0  0  0  0  0  0  0  0  0  0
   -9.1334    0.2160    1.0163 H   0  0  0  0  0  0  0  0  0  0  0  0
  1  2  4  0
  2  3  4  0
  3  4  4  0
  4  5  4  0
  5  6  4  0
  6  7  4  0
  7  8  4  0
  8  9  4  0
  9 10  4  0
  7 11  4  0
 11 12  4  0
 12 13  4  0
 13 14  4  0
 14 15  4  0
 15 16  4  0
 16 17  4  0
 17 18  4  0
 18 19  1  0
 19 20  4  0
 20 21  4  0
 21 22  4  0
 22 23  4  0
 23 24  4  0
 24 25  4  0
 25 26  4  0
 26 27  4  0
 27 28  4  0
 28 29  1  0
 29 30  4  0
 30 31  4  0
 31 32  4  0
 32 33  4  0
 33 34  4  0
 34 35  4  0
 35 36  4  0
 36 37  4  0
 37 38  4  0
 38 39  4  0
 39 40  4  0
 40 41  4  0
 41 42  4  0
 42 43  4  0
 43 44  4  0
 44 45  4  0
 45 46  4  0
 46 47  4  0
 47 48  4  0
 48 49  4  0
 49 50  4  0
 28 51  4  0
 51 52  4  0
 52 53  4  0
 53 54  4  0
 54 55  4  0
 55 56  4  0
 56 57  4  0
 57 58  4  0
 18 59  4  0
 59 60  4  0
 60 61  4  0
 61 62  4  0
 10  1  4  0
 62 13  4  0
  9  4  4  0
 60 15  4  0
 62  6  4  0
 58 19  4  0
 57 22  4  0
 55 24  4  0
 53 26  4  0
 50 29  4  0
 49 32  4  0
 47 34  4  0
 46 37  4  0
 44 39  4  0
  1 63  1  0
  2 64  1  0
  3 65  1  0
  5 66  1  0
  8 67  1  0
 10 68  1  0
 11 69  1  0
 12 70  1  0
 14 71  1  0
 16 72  1  0
 17 73  1  0
 20 74  1  0
 21 75  1  0
 23 76  1  0
 25 77  1  0
 27 78  1  0
 30 79  1  0
 31 80  1  0
 33 81  1  0
 35 82  1  0
 36 83  1  0
 38 84  1  0
 40 85  1  0
 41 86  1  0
 42 87  1  0
 43 88  1  0
 45 89  1  0
 48 90  1  0
 50 91  1  0
 51 92  1  0
 52 93  1  0
 54 94  1  0
 56 95  1  0
 58 96  1  0
 59 97  1  0
 61 98  1  0
M  END
