
     RDKit          3D

 90103  0  0  0  0  0  0  0  0999 V2000
    6.5060   -4.4027    1.7946 C   0  0  0  0  0  0  0  0  0  0  0  0
    5.4779   -3.7976    1.1015 C   0  0  0  0  0  0  0  0  0  0  0  0
    5.6945   -2.5691    0.4627 C   0  0  0  0  0  0  0  0  0  0  0  0
    6.9358   -1.8717    0.4801 C   0  0  0  0  0  0  0  0  0  0  0  0
    7.9639   -2.5437    1.1933 C   0  0  0  0  0  0  0  0  0  0  0  0
    7.7435   -3.7768    1.8358 C   0  0  0  0  0  0  0  0  0  0  0  0
    9.2390   -1.9963    1.2731 C   0  0  0  0  0  0  0  0  0  0  0  0
    9.5530   -0.7896    0.6607 C   0  0  0  0  0  0  0  0  0  0  0  0
   10.8634   -0.3046    0.7679 C   0  0  0  0  0  0  0  0  0  0  0  0
   11.2342    0.8954    0.1733 C   0  0  0  0  0  0  0  0  0  0  0  0
   10.2977    1.6391   -0.5397 C   0  0  0  0  0  0  0  0  0  0  0  0
    8.9653    1.1609   -0.6526 C   0  0  0  0  0  0  0  0  0  0  0  0
    8.0418    1.9349   -1.3725 C   0  0  0  0  0  0  0  0  0  0  0  0
    8.4321    3.1463   -1.9660 C   0  0  0  0  0  0  0  0  0  0  0  0
    9.7408    3.6021   -1.8513 C   0  0  0  0  0  0  0  0  0  0  0  0
   10.6698    2.8511   -1.1398 C   0  0  0  0  0  0  0  0  0  0  0  0
    6.7344    1.4817   -1.4799 C   0  0  0  0  0  0  0  0  0  0  0  0
    6.3052    0.2674   -0.8959 C   0  0  0  0  0  0  0  0  0  0  0  0
    4.8739   -0.0132   -1.0947 C   0  0  0  0  0  0  0  0  0  0  0  0
    4.4209   -0.6204   -2.2739 C   0  0  0  0  0  0  0  0  0  0  0  0
    3.0578   -0.8475   -2.4787 C   0  0  0  0  0  0  0  0  0  0  0  0
    2.1130   -0.4636   -1.5143 C   0  0  0  0  0  0  0  0  0  0  0  0
    0.7395   -0.6882   -1.7042 C   0  0  0  0  0  0  0  0  0  0  0  0
   -0.2066   -0.3028   -0.7391 C   0  0  0  0  0  0  0  0  0  0  0  0
   -1.5801   -0.5308   -0.9278 C   0  0  0  0  0  0  0  0  0  0  0  0
   -2.5262   -0.1473    0.0369 C   0  0  0  0  0  0  0  0  0  0  0  0
   -3.8996   -0.3805   -0.1512 C   0  0  0  0  0  0  0  0  0  0  0  0
   -4.8464    0.0117    0.8106 C   0  0  0  0  0  0  0  0  0  0  0  0
   -6.2743   -0.2909    0.6233 C   0  0  0  0  0  0  0  0  0  0  0  0
   -6.6610   -1.5474    1.1446 C   0  0  0  0  0  0  0  0  0  0  0  0
   -7.9650   -2.0147    1.0626 C   0  0  0  0  0  0  0  0  0  0  0  0
   -8.3123   -3.2678    1.5926 C   0  0  0  0  0  0  0  0  0  0  0  0
   -9.6195   -3.7344    1.5088 C   0  0  0  0  0  0  0  0  0  0  0  0
  -10.5900   -2.9516    0.8935 C   0  0  0  0  0  0  0  0  0  0  0  0
  -10.2610   -1.6975    0.3584 C   0  0  0  0  0  0  0  0  0  0  0  0
   -8.9300   -1.2092    0.4383 C   0  0  0  0  0  0  0  0  0  0  0  0
   -8.5701    0.0657   -0.0985 C   0  0  0  0  0  0  0  0  0  0  0  0
   -7.2315    0.5771   -0.0271 C   0  0  0  0  0  0  0  0  0  0  0  0
   -6.9847    1.9070   -0.6142 C   0  0  0  0  0  0  0  0  0  0  0  0
   -5.7420    2.6013   -0.6491 C   0  0  0  0  0  0  0  0  0  0  0  0
   -5.5692    3.8674   -1.2251 C   0  0  0  0  0  0  0  0  0  0  0  0
   -6.6434    4.5127   -1.8024 C   0  0  0  0  0  0  0  0  0  0  0  0
   -7.8812    3.8864   -1.7972 C   0  0  0  0  0  0  0  0  0  0  0  0
   -8.0573    2.6150   -1.2193 C   0  0  0  0  0  0  0  0  0  0  0  0
   -9.3324    2.0635   -1.2581 C   0  0  0  0  0  0  0  0  0  0  0  0
   -9.6025    0.8150   -0.7126 C   0  0  0  0  0  0  0  0  0  0  0  0
  -10.9118    0.3212   -0.7855 C   0  0  0  0  0  0  0  0  0  0  0  0
  -11.2396   -0.9211   -0.2562 C   0  0  0  0  0  0  0  0  0  0  0  0
   -4.3948    0.6259    1.9866 C   0  0  0  0  0  0  0  0  0  0  0  0
   -3.0326    0.8631    2.1864 C   0  0  0  0  0  0  0  0  0  0  0  0
   -2.0881    0.4823    1.2204 C   0  0  0  0  0  0  0  0  0  0  0  0
   -0.7150    0.7106    1.4084 C   0  0  0  0  0  0  0  0  0  0  0  0
    0.2313    0.3247    0.4437 C   0  0  0  0  0  0  0  0  0  0  0  0
    1.6051    0.5499    0.6337 C   0  0  0  0  0  0  0  0  0  0  0  0
    2.5518    0.1629   -0.3293 C   0  0  0  0  0  0  0  0  0  0  0  0
    3.9263    0.3867   -0.1367 C   0  0  0  0  0  0  0  0  0  0  0  0
    7.2233   -0.5753   -0.1607 C   0  0  0  0  0  0  0  0  0  0  0  0
    8.5629   -0.0728   -0.0537 C   0  0  0  0  0  0  0  0  0  0  0  0
    6.3513   -5.3541    2.2942 H   0  0  0  0  0  0  0  0  0  0  0  0
    4.5002   -4.2694    1.0463 H   0  0  0  0  0  0  0  0  0  0  0  0
    4.8351   -2.1815   -0.0654 H   0  0  0  0  0  0  0  0  0  0  0  0
    8.5485   -4.2682    2.3795 H   0  0  0  0  0  0  0  0  0  0  0  0
   10.0143   -2.5296    1.8221 H   0  0  0  0  0  0  0  0  0  0  0  0
   11.6178   -0.8627    1.3193 H   0  0  0  0  0  0  0  0  0  0  0  0
   12.2605    1.2400    0.2753 H   0  0  0  0  0  0  0  0  0  0  0  0
    7.7145    3.7447   -2.5233 H   0  0  0  0  0  0  0  0  0  0  0  0
   10.0348    4.5401   -2.3140 H   0  0  0  0  0  0  0  0  0  0  0  0
   11.6898    3.2197   -1.0564 H   0  0  0  0  0  0  0  0  0  0  0  0
    6.0084    2.0847   -2.0269 H   0  0  0  0  0  0  0  0  0  0  0  0
    5.1336   -0.9250   -3.0382 H   0  0  0  0  0  0  0  0  0  0  0  0
    2.7412   -1.3274   -3.4021 H   0  0  0  0  0  0  0  0  0  0  0  0
    0.4005   -1.1713   -2.6190 H   0  0  0  0  0  0  0  0  0  0  0  0
   -1.9204   -1.0162   -1.8411 H   0  0  0  0  0  0  0  0  0  0  0  0
   -4.2459   -0.8722   -1.0595 H   0  0  0  0  0  0  0  0  0  0  0  0
   -5.9048   -2.1688    1.6267 H   0  0  0  0  0  0  0  0  0  0  0  0
   -7.5624   -3.8902    2.0762 H   0  0  0  0  0  0  0  0  0  0  0  0
   -9.8805   -4.7048    1.9218 H   0  0  0  0  0  0  0  0  0  0  0  0
  -11.6088   -3.3281    0.8343 H   0  0  0  0  0  0  0  0  0  0  0  0
   -4.8446    2.1777   -0.2216 H   0  0  0  0  0  0  0  0  0  0  0  0
   -4.5883    4.3356   -1.2147 H   0  0  0  0  0  0  0  0  0  0  0  0
   -6.5229    5.4932   -2.2527 H   0  0  0  0  0  0  0  0  0  0  0  0
   -8.7208    4.4065   -2.2552 H   0  0  0  0  0  0  0  0  0  0  0  0
  -10.1411    2.6234   -1.7266 H   0  0  0  0  0  0  0  0  0  0  0  0
  -11.6989    0.9046   -1.2598 H   0  0  0  0  0  0  0  0  0  0  0  0
  -12.2660   -1.2723   -0.3306 H   0  0  0  0  0  0  0  0  0  0  0  0
   -5.1076    0.9249    2.7531 H   0  0  0  0  0  0  0  0  0  0  0  0
   -2.7159    1.3455    3.1085 H   0  0  0  0  0  0  0  0  0  0  0  0
   -0.3762    1.1949    2.3227 H   0  0  0  0  0  0  0  0  0  0  0  0
    1.9452    1.0330    1.5483 H   0  0  0  0  0  0  0  0  0  0  0  0
    4.2731    0.8735    0.7740 H   0  0  0  0  0  0  0  0  0  0  0  0
  1  2  4  0
  2  3  4  0
  3  4  4  0
  4  5  4  0
  5  6  4  0
  5  7  4  0
  7  8  4  0
  8  9  4  0
  9 10  4  0
 10 11  4  0
 11 12  4  0
 12 13  4  0
 13 14  4  0
 14 15  4  0
 15 16  4  0
 13 17  4  0
 17 18  4  0
 18 19  1  0
 19 20  4  0
 20 21  4  0
 21 22  4  0
 22 23  4  0
 23 24  4  0
 24 25  4  0
 25 26  4  0
 26 27  4  0
 27 28  4  0
 28 29  1  0
 29 30  4  0
 30 31  4  0
 31 32  4  0
 32 33  4  0
 33 34  4  0
 34 35  4  0
 35 36  4  0
 36 37  4  0
 37 38  4  0
 38 39  4  0
 39 40  4  0
 40 41  4  0
 41 42  4  0
 42 43  4  0
 43 44  4  0
 44 45  4  0
 45 46  4  0
 46 47  4  0
 47 48  4  0
 28 49  4  0
 49 50  4  0
 50 51  4  0
 51 52  4  0
 52 53  4  0
 53 54  4  0
 54 55  4  0
 55 56  4  0
 18 57  4  0
 57 58  4  0
  6  1  4  0
 58  8  4  0
 57  4  4  0
 16 11  4  0
 56 19  4  0
 58 12  4  0
 55 22  4  0
 53 24  4  0
 51 26  4  0
 38 29  4  0
 44 39  4  0
 36 31  4  0
 46 37  4  0
 48 35  4  0
  1 59  1  0
  2 60  1  0
  3 61  1  0
  6 62  1  0
  7 63  1  0
  9 64  1  0
 10 65  1  0
 14 66  1  0
 15 67  1  0
 16 68  1  0
 17 69  1  0
 20 70  1  0
 21 71  1  0
 23 72  1  0
 25 73  1  0
 27 74  1  0
 30 75  1  0
 32 76  1  0
 33 77  1  0
 34 78  1  0
 40 79  1  0
 41 80  1  0
 42 81  1  0
 43 82  1  0
 45 83  1  0
 47 84  1  0
 48 85  1  0
 49 86  1  0
 50 87  1  0
 52 88  1  0
 54 89  1  0
 56 90  1  0
M  END
