
     RDKit          3D

 90103  0  0  0  0  0  0  0  0999 V2000
  -13.2397   -4.1208    0.3043 C   0  0  0  0  0  0  0  0  0  0  0  0
  -13.7421   -2.8598   -0.0087 C   0  0  0  0  0  0  0  0  0  0  0  0
  -12.8893   -1.7485   -0.0802 C   0  0  0  0  0  0  0  0  0  0  0  0
  -11.5043   -1.9086    0.1681 C   0  0  0  0  0  0  0  0  0  0  0  0
  -11.0039   -3.1898    0.4845 C   0  0  0  0  0  0  0  0  0  0  0  0
  -11.8784   -4.2850    0.5495 C   0  0  0  0  0  0  0  0  0  0  0  0
   -9.6394   -3.3415    0.7276 C   0  0  0  0  0  0  0  0  0  0  0  0
   -8.7776   -2.2425    0.6599 C   0  0  0  0  0  0  0  0  0  0  0  0
   -9.2328   -0.9401    0.3470 C   0  0  0  0  0  0  0  0  0  0  0  0
  -10.6240   -0.7919    0.1000 C   0  0  0  0  0  0  0  0  0  0  0  0
  -11.1570    0.4756   -0.2193 C   0  0  0  0  0  0  0  0  0  0  0  0
  -10.3084    1.5832   -0.2913 C   0  0  0  0  0  0  0  0  0  0  0  0
   -8.9349    1.4690   -0.0538 C   0  0  0  0  0  0  0  0  0  0  0  0
   -8.1241    2.6112   -0.1400 C   0  0  0  0  0  0  0  0  0  0  0  0
   -6.7508    2.5398    0.0888 C   0  0  0  0  0  0  0  0  0  0  0  0
   -6.1489    1.3236    0.4128 C   0  0  0  0  0  0  0  0  0  0  0  0
   -4.7011    1.2359    0.6586 C   0  0  0  0  0  0  0  0  0  0  0  0
   -4.2043    0.7453    1.8735 C   0  0  0  0  0  0  0  0  0  0  0  0
   -2.8286    0.6643    2.1077 C   0  0  0  0  0  0  0  0  0  0  0  0
   -1.9098    1.0708    1.1295 C   0  0  0  0  0  0  0  0  0  0  0  0
   -0.5245    0.9947    1.3487 C   0  0  0  0  0  0  0  0  0  0  0  0
    0.3955    1.3999    0.3673 C   0  0  0  0  0  0  0  0  0  0  0  0
    1.7812    1.3218    0.5860 C   0  0  0  0  0  0  0  0  0  0  0  0
    2.7024    1.7244   -0.3953 C   0  0  0  0  0  0  0  0  0  0  0  0
    4.0897    1.6425   -0.1777 C   0  0  0  0  0  0  0  0  0  0  0  0
    5.0160    2.0436   -1.1555 C   0  0  0  0  0  0  0  0  0  0  0  0
    6.4633    1.9433   -0.9119 C   0  0  0  0  0  0  0  0  0  0  0  0
    7.2898    3.0630   -1.0093 C   0  0  0  0  0  0  0  0  0  0  0  0
    8.6593    2.9541   -0.7720 C   0  0  0  0  0  0  0  0  0  0  0  0
    9.2416    1.7232   -0.4324 C   0  0  0  0  0  0  0  0  0  0  0  0
   10.6192    1.6566   -0.2012 C   0  0  0  0  0  0  0  0  0  0  0  0
   11.2459    0.4550    0.1388 C   0  0  0  0  0  0  0  0  0  0  0  0
   12.6285    0.4160    0.3659 C   0  0  0  0  0  0  0  0  0  0  0  0
   13.2648   -0.7772    0.7054 C   0  0  0  0  0  0  0  0  0  0  0  0
   12.5328   -1.9618    0.8260 C   0  0  0  0  0  0  0  0  0  0  0  0
   11.1351   -1.9391    0.5996 C   0  0  0  0  0  0  0  0  0  0  0  0
   10.3973   -3.1361    0.7214 C   0  0  0  0  0  0  0  0  0  0  0  0
   11.0522   -4.3289    1.0635 C   0  0  0  0  0  0  0  0  0  0  0  0
   12.4273   -4.3444    1.2851 C   0  0  0  0  0  0  0  0  0  0  0  0
   13.1633   -3.1676    1.1670 C   0  0  0  0  0  0  0  0  0  0  0  0
    9.0214   -3.1079    0.4969 C   0  0  0  0  0  0  0  0  0  0  0  0
    8.3799   -1.9130    0.1567 C   0  0  0  0  0  0  0  0  0  0  0  0
    9.0771   -0.6891    0.0237 C   0  0  0  0  0  0  0  0  0  0  0  0
   10.4786   -0.7244    0.2528 C   0  0  0  0  0  0  0  0  0  0  0  0
    8.4470    0.5580   -0.3239 C   0  0  0  0  0  0  0  0  0  0  0  0
    7.0562    0.7122   -0.5726 C   0  0  0  0  0  0  0  0  0  0  0  0
    4.5209    2.5377   -2.3695 C   0  0  0  0  0  0  0  0  0  0  0  0
    3.1454    2.6250   -2.6026 C   0  0  0  0  0  0  0  0  0  0  0  0
    2.2250    2.2209   -1.6245 C   0  0  0  0  0  0  0  0  0  0  0  0
    0.8395    2.2995   -1.8434 C   0  0  0  0  0  0  0  0  0  0  0  0
   -0.0815    1.8941   -0.8625 C   0  0  0  0  0  0  0  0  0  0  0  0
   -1.4676    1.9708   -1.0809 C   0  0  0  0  0  0  0  0  0  0  0  0
   -2.3885    1.5659   -0.1000 C   0  0  0  0  0  0  0  0  0  0  0  0
   -3.7764    1.6425   -0.3182 C   0  0  0  0  0  0  0  0  0  0  0  0
   -6.9694    0.1827    0.4971 C   0  0  0  0  0  0  0  0  0  0  0  0
   -8.3724    0.2119    0.2696 C   0  0  0  0  0  0  0  0  0  0  0  0
  -12.5302    0.6176   -0.4625 C   0  0  0  0  0  0  0  0  0  0  0  0
  -13.3865   -0.4805   -0.3940 C   0  0  0  0  0  0  0  0  0  0  0  0
  -13.9089   -4.9754    0.3571 H   0  0  0  0  0  0  0  0  0  0  0  0
  -14.8077   -2.7503   -0.1973 H   0  0  0  0  0  0  0  0  0  0  0  0
  -11.5033   -5.2768    0.7923 H   0  0  0  0  0  0  0  0  0  0  0  0
   -9.2264   -4.3175    0.9728 H   0  0  0  0  0  0  0  0  0  0  0  0
   -7.7274   -2.4350    0.8599 H   0  0  0  0  0  0  0  0  0  0  0  0
  -10.7279    2.5574   -0.5388 H   0  0  0  0  0  0  0  0  0  0  0  0
   -8.5578    3.5786   -0.3863 H   0  0  0  0  0  0  0  0  0  0  0  0
   -6.1558    3.4482    0.0233 H   0  0  0  0  0  0  0  0  0  0  0  0
   -4.8913    0.4310    2.6571 H   0  0  0  0  0  0  0  0  0  0  0  0
   -2.4819    0.2822    3.0653 H   0  0  0  0  0  0  0  0  0  0  0  0
   -0.1559    0.6132    2.2993 H   0  0  0  0  0  0  0  0  0  0  0  0
    2.1497    0.9406    1.5368 H   0  0  0  0  0  0  0  0  0  0  0  0
    4.4591    1.2671    0.7758 H   0  0  0  0  0  0  0  0  0  0  0  0
    6.8713    4.0355   -1.2592 H   0  0  0  0  0  0  0  0  0  0  0  0
    9.2713    3.8505   -0.8529 H   0  0  0  0  0  0  0  0  0  0  0  0
   11.2188    2.5616   -0.2877 H   0  0  0  0  0  0  0  0  0  0  0  0
   13.2277    1.3201    0.2802 H   0  0  0  0  0  0  0  0  0  0  0  0
   14.3391   -0.7709    0.8747 H   0  0  0  0  0  0  0  0  0  0  0  0
   10.4932   -5.2571    1.1597 H   0  0  0  0  0  0  0  0  0  0  0  0
   12.9253   -5.2733    1.5496 H   0  0  0  0  0  0  0  0  0  0  0  0
   14.2361   -3.1982    1.3435 H   0  0  0  0  0  0  0  0  0  0  0  0
    8.4279   -4.0154    0.5828 H   0  0  0  0  0  0  0  0  0  0  0  0
    7.3070   -1.9659   -0.0046 H   0  0  0  0  0  0  0  0  0  0  0  0
    6.3984   -0.1517   -0.5149 H   0  0  0  0  0  0  0  0  0  0  0  0
    5.2085    2.8474   -3.1542 H   0  0  0  0  0  0  0  0  0  0  0  0
    2.7997    3.0089   -3.5598 H   0  0  0  0  0  0  0  0  0  0  0  0
    0.4725    2.6827   -2.7939 H   0  0  0  0  0  0  0  0  0  0  0  0
   -1.8366    2.3523   -2.0315 H   0  0  0  0  0  0  0  0  0  0  0  0
   -4.1474    2.0149   -1.2721 H   0  0  0  0  0  0  0  0  0  0  0  0
   -6.4812   -0.7584    0.7378 H   0  0  0  0  0  0  0  0  0  0  0  0
  -12.9495    1.5908   -0.7094 H   0  0  0  0  0  0  0  0  0  0  0  0
  -14.4466   -0.3342   -0.5887 H   0  0  0  0  0  0  0  0  0  0  0  0
  1  2  4  0
  2  3  4  0
  3  4  4  0
  4  5  4  0
  5  6  4  0
  5  7  4  0
  7  8  4  0
  8  9  4  0
  9 10  4  0
 10 11  4  0
 11 12  4  0
 12 13  4  0
 13 14  4  0
 14 15  4  0
 15 16  4  0
 16 17  1  0
 17 18  4  0
 18 19  4  0
 19 20  4  0
 20 21  4  0
 21 22  4  0
 22 23  4  0
 23 24  4  0
 24 25  4  0
 25 26  4  0
 26 27  1  0
 27 28  4  0
 28 29  4  0
 29 30  4  0
 30 31  4  0
 31 32  4  0
 32 33  4  0
 33 34  4  0
 34 35  4  0
 35 36  4  0
 36 37  4  0
 37 38  4  0
 38 39  4  0
 39 40  4  0
 37 41  4  0
 41 42  4  0
 42 43  4  0
 43 44  4  0
 43 45  4  0
 45 46  4  0
 26 47  4  0
 47 48  4  0
 48 49  4  0
 49 50  4  0
 50 51  4  0
 51 52  4  0
 52 53  4  0
 53 54  4  0
 16 55  4  0
 55 56  4  0
 11 57  4  0
 57 58  4  0
  6  1  4  0
 56  9  4  0
 58  3  4  0
 10  4  4  0
 56 13  4  0
 54 17  4  0
 53 20  4  0
 51 22  4  0
 49 24  4  0
 46 27  4  0
 45 30  4  0
 44 32  4  0
 40 35  4  0
 44 36  4  0
  1 59  1  0
  2 60  1  0
  6 61  1  0
  7 62  1  0
  8 63  1  0
 12 64  1  0
 14 65  1  0
 15 66  1  0
 18 67  1  0
 19 68  1  0
 21 69  1  0
 23 70  1  0
 25 71  1  0
 28 72  1  0
 29 73  1  0
 31 74  1  0
 33 75  1  0
 34 76  1  0
 38 77  1  0
 39 78  1  0
 40 79  1  0
 41 80  1  0
 42 81  1  0
 46 82  1  0
 47 83  1  0
 48 84  1  0
 50 85  1  0
 52 86  1  0
 54 87  1  0
 55 88  1  0
 57 89  1  0
 58 90  1  0
M  END
