
     RDKit          3D

 90103  0  0  0  0  0  0  0  0999 V2000
  -15.4920    0.6092   -0.6665 C   0  0  0  0  0  0  0  0  0  0  0  0
  -14.8581    1.7814   -0.2610 C   0  0  0  0  0  0  0  0  0  0  0  0
  -13.4799    1.7947   -0.0003 C   0  0  0  0  0  0  0  0  0  0  0  0
  -12.7251    0.6058   -0.1504 C   0  0  0  0  0  0  0  0  0  0  0  0
  -13.3756   -0.5773   -0.5619 C   0  0  0  0  0  0  0  0  0  0  0  0
  -14.7553   -0.5635   -0.8163 C   0  0  0  0  0  0  0  0  0  0  0  0
  -12.6271   -1.7446   -0.7083 C   0  0  0  0  0  0  0  0  0  0  0  0
  -11.2525   -1.7457   -0.4519 C   0  0  0  0  0  0  0  0  0  0  0  0
  -10.5580   -0.5850   -0.0374 C   0  0  0  0  0  0  0  0  0  0  0  0
  -11.3257    0.6008    0.1099 C   0  0  0  0  0  0  0  0  0  0  0  0
  -10.7054    1.8007    0.5198 C   0  0  0  0  0  0  0  0  0  0  0  0
   -9.3327    1.8152    0.7805 C   0  0  0  0  0  0  0  0  0  0  0  0
   -8.5494    0.6644    0.6457 C   0  0  0  0  0  0  0  0  0  0  0  0
   -7.1701    0.7312    0.9211 C   0  0  0  0  0  0  0  0  0  0  0  0
   -6.3318   -0.3853    0.8015 C   0  0  0  0  0  0  0  0  0  0  0  0
   -4.8939   -0.2911    1.0944 C   0  0  0  0  0  0  0  0  0  0  0  0
   -4.4405    0.1595    2.3414 C   0  0  0  0  0  0  0  0  0  0  0  0
   -3.0736    0.2521    2.6192 C   0  0  0  0  0  0  0  0  0  0  0  0
   -2.1203   -0.1024    1.6540 C   0  0  0  0  0  0  0  0  0  0  0  0
   -0.7432   -0.0126    1.9162 C   0  0  0  0  0  0  0  0  0  0  0  0
    0.2113   -0.3650    0.9472 C   0  0  0  0  0  0  0  0  0  0  0  0
    1.5891   -0.2743    1.2085 C   0  0  0  0  0  0  0  0  0  0  0  0
    2.5446   -0.6246    0.2397 C   0  0  0  0  0  0  0  0  0  0  0  0
    3.9245   -0.5331    0.5005 C   0  0  0  0  0  0  0  0  0  0  0  0
    4.8847   -0.8786   -0.4659 C   0  0  0  0  0  0  0  0  0  0  0  0
    6.3232   -0.7766   -0.1749 C   0  0  0  0  0  0  0  0  0  0  0  0
    6.8890   -1.4371    0.9162 C   0  0  0  0  0  0  0  0  0  0  0  0
    8.2598   -1.3367    1.1864 C   0  0  0  0  0  0  0  0  0  0  0  0
    9.1369   -0.5693    0.3815 C   0  0  0  0  0  0  0  0  0  0  0  0
    8.5561    0.0983   -0.7221 C   0  0  0  0  0  0  0  0  0  0  0  0
    7.1761   -0.0129   -0.9834 C   0  0  0  0  0  0  0  0  0  0  0  0
    9.3553    0.8789   -1.5644 C   0  0  0  0  0  0  0  0  0  0  0  0
   10.7288    1.0206   -1.3473 C   0  0  0  0  0  0  0  0  0  0  0  0
   11.5057    1.8091   -2.2075 C   0  0  0  0  0  0  0  0  0  0  0  0
   12.8766    1.9578   -2.0004 C   0  0  0  0  0  0  0  0  0  0  0  0
   13.5048    1.3207   -0.9267 C   0  0  0  0  0  0  0  0  0  0  0  0
   12.7341    0.5204   -0.0486 C   0  0  0  0  0  0  0  0  0  0  0  0
   13.3696   -0.1223    1.0355 C   0  0  0  0  0  0  0  0  0  0  0  0
   14.7500    0.0372    1.2308 C   0  0  0  0  0  0  0  0  0  0  0  0
   15.5024    0.8259    0.3634 C   0  0  0  0  0  0  0  0  0  0  0  0
   14.8833    1.4638   -0.7091 C   0  0  0  0  0  0  0  0  0  0  0  0
   12.6056   -0.9089    1.8968 C   0  0  0  0  0  0  0  0  0  0  0  0
   11.2305   -1.0600    1.6921 C   0  0  0  0  0  0  0  0  0  0  0  0
   10.5505   -0.4354    0.6203 C   0  0  0  0  0  0  0  0  0  0  0  0
   11.3339    0.3642   -0.2539 C   0  0  0  0  0  0  0  0  0  0  0  0
    4.4305   -1.3238   -1.7147 C   0  0  0  0  0  0  0  0  0  0  0  0
    3.0632   -1.4226   -1.9901 C   0  0  0  0  0  0  0  0  0  0  0  0
    2.1096   -1.0760   -1.0223 C   0  0  0  0  0  0  0  0  0  0  0  0
    0.7323   -1.1684   -1.2835 C   0  0  0  0  0  0  0  0  0  0  0  0
   -0.2224   -0.8182   -0.3139 C   0  0  0  0  0  0  0  0  0  0  0  0
   -1.6002   -0.9091   -0.5752 C   0  0  0  0  0  0  0  0  0  0  0  0
   -2.5553   -0.5574    0.3932 C   0  0  0  0  0  0  0  0  0  0  0  0
   -3.9347   -0.6469    0.1313 C   0  0  0  0  0  0  0  0  0  0  0  0
   -6.9109   -1.5876    0.3946 C   0  0  0  0  0  0  0  0  0  0  0  0
   -8.2818   -1.6683    0.1195 C   0  0  0  0  0  0  0  0  0  0  0  0
   -9.1447   -0.5512    0.2346 C   0  0  0  0  0  0  0  0  0  0  0  0
  -11.4659    2.9690    0.6634 C   0  0  0  0  0  0  0  0  0  0  0  0
  -12.8364    2.9669    0.4068 C   0  0  0  0  0  0  0  0  0  0  0  0
  -16.5603    0.6095   -0.8661 H   0  0  0  0  0  0  0  0  0  0  0  0
  -15.4494    2.6875   -0.1497 H   0  0  0  0  0  0  0  0  0  0  0  0
  -15.2671   -1.4693   -1.1340 H   0  0  0  0  0  0  0  0  0  0  0  0
  -13.1025   -2.6706   -1.0241 H   0  0  0  0  0  0  0  0  0  0  0  0
  -10.7321   -2.6896   -0.5860 H   0  0  0  0  0  0  0  0  0  0  0  0
   -8.8631    2.7459    1.0959 H   0  0  0  0  0  0  0  0  0  0  0  0
   -6.7318    1.6813    1.2257 H   0  0  0  0  0  0  0  0  0  0  0  0
   -5.1544    0.4336    3.1159 H   0  0  0  0  0  0  0  0  0  0  0  0
   -2.7611    0.6036    3.6000 H   0  0  0  0  0  0  0  0  0  0  0  0
   -0.4088    0.3390    2.8907 H   0  0  0  0  0  0  0  0  0  0  0  0
    1.9239    0.0764    2.1832 H   0  0  0  0  0  0  0  0  0  0  0  0
    4.2602   -0.1737    1.4724 H   0  0  0  0  0  0  0  0  0  0  0  0
    6.2695   -2.0517    1.5666 H   0  0  0  0  0  0  0  0  0  0  0  0
    8.6285   -1.8821    2.0504 H   0  0  0  0  0  0  0  0  0  0  0  0
    6.7502    0.5197   -1.8334 H   0  0  0  0  0  0  0  0  0  0  0  0
    8.8975    1.3898   -2.4104 H   0  0  0  0  0  0  0  0  0  0  0  0
   11.0481    2.3191   -3.0527 H   0  0  0  0  0  0  0  0  0  0  0  0
   13.4482    2.5773   -2.6876 H   0  0  0  0  0  0  0  0  0  0  0  0
   15.2496   -0.4536    2.0630 H   0  0  0  0  0  0  0  0  0  0  0  0
   16.5710    0.9433    0.5233 H   0  0  0  0  0  0  0  0  0  0  0  0
   15.4864    2.0757   -1.3762 H   0  0  0  0  0  0  0  0  0  0  0  0
   13.0691   -1.4160    2.7402 H   0  0  0  0  0  0  0  0  0  0  0  0
   10.6980   -1.6869    2.4015 H   0  0  0  0  0  0  0  0  0  0  0  0
    5.1437   -1.6113   -2.4849 H   0  0  0  0  0  0  0  0  0  0  0  0
    2.7505   -1.7762   -2.9701 H   0  0  0  0  0  0  0  0  0  0  0  0
    0.3977   -1.5177   -2.2588 H   0  0  0  0  0  0  0  0  0  0  0  0
   -1.9349   -1.2588   -1.5502 H   0  0  0  0  0  0  0  0  0  0  0  0
   -4.2708   -0.9876   -0.8471 H   0  0  0  0  0  0  0  0  0  0  0  0
   -6.3023   -2.4844    0.2976 H   0  0  0  0  0  0  0  0  0  0  0  0
   -8.6618   -2.6383   -0.1880 H   0  0  0  0  0  0  0  0  0  0  0  0
  -10.9955    3.8982    0.9783 H   0  0  0  0  0  0  0  0  0  0  0  0
  -13.3956    3.8916    0.5285 H   0  0  0  0  0  0  0  0  0  0  0  0
  1  2  4  0
  2  3  4  0
  3  4  4  0
  4  5  4  0
  5  6  4  0
  5  7  4  0
  7  8  4  0
  8  9  4  0
  9 10  4  0
 10 11  4  0
 11 12  4  0
 12 13  4  0
 13 14  4  0
 14 15  4  0
 15 16  1  0
 16 17  4  0
 17 18  4  0
 18 19  4  0
 19 20  4  0
 20 21  4  0
 21 22  4  0
 22 23  4  0
 23 24  4  0
 24 25  4  0
 25 26  1  0
 26 27  4  0
 27 28  4  0
 28 29  4  0
 29 30  4  0
 30 31  4  0
 30 32  4  0
 32 33  4  0
 33 34  4  0
 34 35  4  0
 35 36  4  0
 36 37  4  0
 37 38  4  0
 38 39  4  0
 39 40  4  0
 40 41  4  0
 38 42  4  0
 42 43  4  0
 43 44  4  0
 44 45  4  0
 25 46  4  0
 46 47  4  0
 47 48  4  0
 48 49  4  0
 49 50  4  0
 50 51  4  0
 51 52  4  0
 52 53  4  0
 15 54  4  0
 54 55  4  0
 55 56  4  0
 11 57  4  0
 57 58  4  0
  6  1  4  0
 56  9  4  0
 58  3  4  0
 10  4  4  0
 56 13  4  0
 53 16  4  0
 52 19  4  0
 50 21  4  0
 48 23  4  0
 31 26  4  0
 45 33  4  0
 44 29  4  0
 41 36  4  0
 45 37  4  0
  1 59  1  0
  2 60  1  0
  6 61  1  0
  7 62  1  0
  8 63  1  0
 12 64  1  0
 14 65  1  0
 17 66  1  0
 18 67  1  0
 20 68  1  0
 22 69  1  0
 24 70  1  0
 27 71  1  0
 28 72  1  0
 31 73  1  0
 32 74  1  0
 34 75  1  0
 35 76  1  0
 39 77  1  0
 40 78  1  0
 41 79  1  0
 42 80  1  0
 43 81  1  0
 46 82  1  0
 47 83  1  0
 49 84  1  0
 51 85  1  0
 53 86  1  0
 54 87  1  0
 55 88  1  0
 57 89  1  0
 58 90  1  0
M  END
