
     RDKit          3D

 90103  0  0  0  0  0  0  0  0999 V2000
  -12.5415    3.2669   -0.8760 C   0  0  0  0  0  0  0  0  0  0  0  0
  -13.2567    2.2152   -0.3265 C   0  0  0  0  0  0  0  0  0  0  0  0
  -12.6001    1.0278    0.0114 C   0  0  0  0  0  0  0  0  0  0  0  0
  -11.2061    0.8470   -0.1867 C   0  0  0  0  0  0  0  0  0  0  0  0
  -10.5021    1.9382   -0.7494 C   0  0  0  0  0  0  0  0  0  0  0  0
  -11.1726    3.1278   -1.0854 C   0  0  0  0  0  0  0  0  0  0  0  0
   -9.1266    1.8378   -0.9759 C   0  0  0  0  0  0  0  0  0  0  0  0
   -8.4151    0.6767   -0.6603 C   0  0  0  0  0  0  0  0  0  0  0  0
   -7.0379    0.6099   -0.9000 C   0  0  0  0  0  0  0  0  0  0  0  0
   -6.2871   -0.5375   -0.5971 C   0  0  0  0  0  0  0  0  0  0  0  0
   -4.8425   -0.5131   -0.8782 C   0  0  0  0  0  0  0  0  0  0  0  0
   -4.3590   -0.7985   -2.1604 C   0  0  0  0  0  0  0  0  0  0  0  0
   -2.9875   -0.7761   -2.4254 C   0  0  0  0  0  0  0  0  0  0  0  0
   -2.0663   -0.4664   -1.4132 C   0  0  0  0  0  0  0  0  0  0  0  0
   -0.6842   -0.4424   -1.6624 C   0  0  0  0  0  0  0  0  0  0  0  0
    0.2379   -0.1343   -0.6479 C   0  0  0  0  0  0  0  0  0  0  0  0
    1.6204   -0.1108   -0.8969 C   0  0  0  0  0  0  0  0  0  0  0  0
    2.5424    0.1967    0.1172 C   0  0  0  0  0  0  0  0  0  0  0  0
    3.9252    0.2207   -0.1332 C   0  0  0  0  0  0  0  0  0  0  0  0
    4.8461    0.5315    0.8796 C   0  0  0  0  0  0  0  0  0  0  0  0
    6.2906    0.5499    0.5995 C   0  0  0  0  0  0  0  0  0  0  0  0
    7.0189   -0.6312    0.8146 C   0  0  0  0  0  0  0  0  0  0  0  0
    8.3948   -0.7057    0.5705 C   0  0  0  0  0  0  0  0  0  0  0  0
    9.0833   -1.9009    0.7967 C   0  0  0  0  0  0  0  0  0  0  0  0
   10.4568   -2.0102    0.5625 C   0  0  0  0  0  0  0  0  0  0  0  0
   11.1033   -3.2350    0.8058 C   0  0  0  0  0  0  0  0  0  0  0  0
   12.4693   -3.3845    0.5851 C   0  0  0  0  0  0  0  0  0  0  0  0
   13.2057   -2.3080    0.1174 C   0  0  0  0  0  0  0  0  0  0  0  0
   12.5729   -1.0855   -0.1279 C   0  0  0  0  0  0  0  0  0  0  0  0
   11.1825   -0.8930    0.0847 C   0  0  0  0  0  0  0  0  0  0  0  0
   10.4850    0.3445   -0.1523 C   0  0  0  0  0  0  0  0  0  0  0  0
    9.0866    0.4254    0.0954 C   0  0  0  0  0  0  0  0  0  0  0  0
    8.3619    1.6326   -0.1273 C   0  0  0  0  0  0  0  0  0  0  0  0
    6.9641    1.7029    0.1228 C   0  0  0  0  0  0  0  0  0  0  0  0
    6.3040    2.9299   -0.1169 C   0  0  0  0  0  0  0  0  0  0  0  0
    6.9874    4.0491   -0.5862 C   0  0  0  0  0  0  0  0  0  0  0  0
    8.3525    3.9713   -0.8288 C   0  0  0  0  0  0  0  0  0  0  0  0
    9.0461    2.7759   -0.6042 C   0  0  0  0  0  0  0  0  0  0  0  0
   10.4162    2.7024   -0.8487 C   0  0  0  0  0  0  0  0  0  0  0  0
   11.1163    1.5148   -0.6275 C   0  0  0  0  0  0  0  0  0  0  0  0
    4.3628    0.8152    2.1624 C   0  0  0  0  0  0  0  0  0  0  0  0
    2.9910    0.7949    2.4266 C   0  0  0  0  0  0  0  0  0  0  0  0
    2.0700    0.4879    1.4135 C   0  0  0  0  0  0  0  0  0  0  0  0
    0.6879    0.4642    1.6622 C   0  0  0  0  0  0  0  0  0  0  0  0
   -0.2339    0.1572    0.6472 C   0  0  0  0  0  0  0  0  0  0  0  0
   -1.6162    0.1345    0.8963 C   0  0  0  0  0  0  0  0  0  0  0  0
   -2.5385   -0.1735   -0.1173 C   0  0  0  0  0  0  0  0  0  0  0  0
   -3.9214   -0.1977    0.1333 C   0  0  0  0  0  0  0  0  0  0  0  0
   -6.9392   -1.6640   -0.0344 C   0  0  0  0  0  0  0  0  0  0  0  0
   -8.3378   -1.6008    0.2131 C   0  0  0  0  0  0  0  0  0  0  0  0
   -9.0001   -2.7173    0.7768 C   0  0  0  0  0  0  0  0  0  0  0  0
   -8.2844   -3.8796    1.0888 C   0  0  0  0  0  0  0  0  0  0  0  0
   -6.9189   -3.9513    0.8471 C   0  0  0  0  0  0  0  0  0  0  0  0
   -6.2573   -2.8586    0.2919 C   0  0  0  0  0  0  0  0  0  0  0  0
  -10.3710   -2.6509    1.0183 C   0  0  0  0  0  0  0  0  0  0  0  0
  -11.0935   -1.4971    0.7085 C   0  0  0  0  0  0  0  0  0  0  0  0
  -10.4848   -0.3549    0.1437 C   0  0  0  0  0  0  0  0  0  0  0  0
   -9.0851   -0.4278   -0.0992 C   0  0  0  0  0  0  0  0  0  0  0  0
  -13.0441    4.1927   -1.1418 H   0  0  0  0  0  0  0  0  0  0  0  0
  -14.3262    2.3107   -0.1581 H   0  0  0  0  0  0  0  0  0  0  0  0
  -13.2100    0.2367    0.4378 H   0  0  0  0  0  0  0  0  0  0  0  0
  -10.6263    3.9638   -1.5183 H   0  0  0  0  0  0  0  0  0  0  0  0
   -8.5958    2.6846   -1.4092 H   0  0  0  0  0  0  0  0  0  0  0  0
   -6.5250    1.4698   -1.3310 H   0  0  0  0  0  0  0  0  0  0  0  0
   -5.0528   -1.0457   -2.9617 H   0  0  0  0  0  0  0  0  0  0  0  0
   -2.6447   -1.0055   -3.4320 H   0  0  0  0  0  0  0  0  0  0  0  0
   -0.3201   -0.6684   -2.6631 H   0  0  0  0  0  0  0  0  0  0  0  0
    1.9868   -0.3352   -1.8973 H   0  0  0  0  0  0  0  0  0  0  0  0
    4.2976   -0.0024   -1.1322 H   0  0  0  0  0  0  0  0  0  0  0  0
    6.4894   -1.5108    1.1807 H   0  0  0  0  0  0  0  0  0  0  0  0
    8.5358   -2.7679    1.1642 H   0  0  0  0  0  0  0  0  0  0  0  0
   10.5404   -4.0908    1.1735 H   0  0  0  0  0  0  0  0  0  0  0  0
   12.9532   -4.3378    0.7784 H   0  0  0  0  0  0  0  0  0  0  0  0
   14.2731   -2.4118   -0.0588 H   0  0  0  0  0  0  0  0  0  0  0  0
   13.1984   -0.2763   -0.4933 H   0  0  0  0  0  0  0  0  0  0  0  0
    5.2347    3.0278    0.0626 H   0  0  0  0  0  0  0  0  0  0  0  0
    6.4528    4.9789   -0.7614 H   0  0  0  0  0  0  0  0  0  0  0  0
    8.8724    4.8537   -1.1952 H   0  0  0  0  0  0  0  0  0  0  0  0
   10.9610    3.5696   -1.2158 H   0  0  0  0  0  0  0  0  0  0  0  0
   12.1814    1.5301   -0.8395 H   0  0  0  0  0  0  0  0  0  0  0  0
    5.0574    1.0575    2.9645 H   0  0  0  0  0  0  0  0  0  0  0  0
    2.6482    1.0223    3.4336 H   0  0  0  0  0  0  0  0  0  0  0  0
    0.3232    0.6886    2.6631 H   0  0  0  0  0  0  0  0  0  0  0  0
   -1.9823    0.3591    1.8968 H   0  0  0  0  0  0  0  0  0  0  0  0
   -4.2940    0.0272    1.1319 H   0  0  0  0  0  0  0  0  0  0  0  0
   -8.7875   -4.7410    1.5224 H   0  0  0  0  0  0  0  0  0  0  0  0
   -6.3669   -4.8555    1.0888 H   0  0  0  0  0  0  0  0  0  0  0  0
   -5.1877   -2.9525    0.1129 H   0  0  0  0  0  0  0  0  0  0  0  0
  -10.8992   -3.4977    1.4514 H   0  0  0  0  0  0  0  0  0  0  0  0
  -12.1581   -1.5162    0.9232 H   0  0  0  0  0  0  0  0  0  0  0  0
  1  2  4  0
  2  3  4  0
  3  4  4  0
  4  5  4  0
  5  6  4  0
  5  7  4  0
  7  8  4  0
  8  9  4  0
  9 10  4  0
 10 11  1  0
 11 12  4  0
 12 13  4  0
 13 14  4  0
 14 15  4  0
 15 16  4  0
 16 17  4  0
 17 18  4  0
 18 19  4  0
 19 20  4  0
 20 21  1  0
 21 22  4  0
 22 23  4  0
 23 24  4  0
 24 25  4  0
 25 26  4  0
 26 27  4  0
 27 28  4  0
 28 29  4  0
 29 30  4  0
 30 31  4  0
 31 32  4  0
 32 33  4  0
 33 34  4  0
 34 35  4  0
 35 36  4  0
 36 37  4  0
 37 38  4  0
 38 39  4  0
 39 40  4  0
 20 41  4  0
 41 42  4  0
 42 43  4  0
 43 44  4  0
 44 45  4  0
 45 46  4  0
 46 47  4  0
 47 48  4  0
 10 49  4  0
 49 50  4  0
 50 51  4  0
 51 52  4  0
 52 53  4  0
 53 54  4  0
 51 55  4  0
 55 56  4  0
 56 57  4  0
 57 58  4  0
  6  1  4  0
 58  8  4  0
 57  4  4  0
 48 11  4  0
 54 49  4  0
 47 14  4  0
 58 50  4  0
 45 16  4  0
 43 18  4  0
 34 21  4  0
 32 23  4  0
 38 33  4  0
 30 25  4  0
 40 31  4  0
  1 59  1  0
  2 60  1  0
  3 61  1  0
  6 62  1  0
  7 63  1  0
  9 64  1  0
 12 65  1  0
 13 66  1  0
 15 67  1  0
 17 68  1  0
 19 69  1  0
 22 70  1  0
 24 71  1  0
 26 72  1  0
 27 73  1  0
 28 74  1  0
 29 75  1  0
 35 76  1  0
 36 77  1  0
 37 78  1  0
 39 79  1  0
 40 80  1  0
 41 81  1  0
 42 82  1  0
 44 83  1  0
 46 84  1  0
 48 85  1  0
 52 86  1  0
 53 87  1  0
 54 88  1  0
 55 89  1  0
 56 90  1  0
M  END
