
     RDKit          3D

 90103  0  0  0  0  0  0  0  0999 V2000
    6.9767    1.5179   -5.3210 C   0  0  0  0  0  0  0  0  0  0  0  0
    8.2918    1.3594   -4.8935 C   0  0  0  0  0  0  0  0  0  0  0  0
    8.5881    1.2351   -3.5279 C   0  0  0  0  0  0  0  0  0  0  0  0
    7.5451    1.2711   -2.5677 C   0  0  0  0  0  0  0  0  0  0  0  0
    6.2201    1.4301   -3.0158 C   0  0  0  0  0  0  0  0  0  0  0  0
    5.9455    1.5524   -4.3868 C   0  0  0  0  0  0  0  0  0  0  0  0
    5.1989    1.4604   -2.0756 C   0  0  0  0  0  0  0  0  0  0  0  0
    5.4836    1.3397   -0.7099 C   0  0  0  0  0  0  0  0  0  0  0  0
    6.7913    1.1856   -0.1853 C   0  0  0  0  0  0  0  0  0  0  0  0
    7.8239    1.1488   -1.1713 C   0  0  0  0  0  0  0  0  0  0  0  0
    9.1678    0.9867   -0.7844 C   0  0  0  0  0  0  0  0  0  0  0  0
    9.4839    0.8585    0.5634 C   0  0  0  0  0  0  0  0  0  0  0  0
    8.5079    0.8926    1.5602 C   0  0  0  0  0  0  0  0  0  0  0  0
    8.9631    0.7516    2.8809 C   0  0  0  0  0  0  0  0  0  0  0  0
    8.0909    0.7755    3.9535 C   0  0  0  0  0  0  0  0  0  0  0  0
    6.7427    0.9478    3.7093 C   0  0  0  0  0  0  0  0  0  0  0  0
    6.2397    1.0946    2.3936 C   0  0  0  0  0  0  0  0  0  0  0  0
    4.7822    1.2870    2.3282 C   0  0  0  0  0  0  0  0  0  0  0  0
    4.2293    2.5743    2.3628 C   0  0  0  0  0  0  0  0  0  0  0  0
    2.8437    2.7542    2.3497 C   0  0  0  0  0  0  0  0  0  0  0  0
    1.9771    1.6510    2.3139 C   0  0  0  0  0  0  0  0  0  0  0  0
    0.5822    1.8159    2.3056 C   0  0  0  0  0  0  0  0  0  0  0  0
   -0.2862    0.7118    2.2764 C   0  0  0  0  0  0  0  0  0  0  0  0
   -1.6816    0.8774    2.2727 C   0  0  0  0  0  0  0  0  0  0  0  0
   -2.5504   -0.2258    2.2469 C   0  0  0  0  0  0  0  0  0  0  0  0
   -3.9462   -0.0589    2.2460 C   0  0  0  0  0  0  0  0  0  0  0  0
   -4.8148   -1.1631    2.2105 C   0  0  0  0  0  0  0  0  0  0  0  0
   -6.2738   -0.9744    2.2518 C   0  0  0  0  0  0  0  0  0  0  0  0
   -7.1477   -1.0094    1.0918 C   0  0  0  0  0  0  0  0  0  0  0  0
   -8.5375   -0.8866    1.3862 C   0  0  0  0  0  0  0  0  0  0  0  0
   -9.0129   -0.7049    2.6948 C   0  0  0  0  0  0  0  0  0  0  0  0
   -8.1525   -0.6463    3.7758 C   0  0  0  0  0  0  0  0  0  0  0  0
   -6.7965   -0.7863    3.5543 C   0  0  0  0  0  0  0  0  0  0  0  0
   -9.5017   -0.9469    0.3790 C   0  0  0  0  0  0  0  0  0  0  0  0
   -9.1627   -1.1234   -0.9580 C   0  0  0  0  0  0  0  0  0  0  0  0
  -10.1738   -1.1939   -1.9272 C   0  0  0  0  0  0  0  0  0  0  0  0
   -9.8649   -1.3636   -3.2737 C   0  0  0  0  0  0  0  0  0  0  0  0
   -8.5346   -1.4604   -3.6816 C   0  0  0  0  0  0  0  0  0  0  0  0
   -7.5035   -1.3870   -2.7113 C   0  0  0  0  0  0  0  0  0  0  0  0
   -6.1652   -1.4759   -3.1397 C   0  0  0  0  0  0  0  0  0  0  0  0
   -5.8660   -1.6401   -4.5010 C   0  0  0  0  0  0  0  0  0  0  0  0
   -6.8859   -1.7169   -5.4449 C   0  0  0  0  0  0  0  0  0  0  0  0
   -8.2137   -1.6267   -5.0371 C   0  0  0  0  0  0  0  0  0  0  0  0
   -5.1556   -1.3905   -2.1907 C   0  0  0  0  0  0  0  0  0  0  0  0
   -5.4650   -1.2311   -0.8345 C   0  0  0  0  0  0  0  0  0  0  0  0
   -6.7868   -1.1567   -0.3283 C   0  0  0  0  0  0  0  0  0  0  0  0
   -7.8072   -1.2234   -1.3245 C   0  0  0  0  0  0  0  0  0  0  0  0
   -4.2625   -2.4511    2.2000 C   0  0  0  0  0  0  0  0  0  0  0  0
   -2.8771   -2.6314    2.2002 C   0  0  0  0  0  0  0  0  0  0  0  0
   -2.0099   -1.5283    2.2228 C   0  0  0  0  0  0  0  0  0  0  0  0
   -0.6150   -1.6933    2.2254 C   0  0  0  0  0  0  0  0  0  0  0  0
    0.2537   -0.5891    2.2525 C   0  0  0  0  0  0  0  0  0  0  0  0
    1.6492   -0.7546    2.2587 C   0  0  0  0  0  0  0  0  0  0  0  0
    2.5180    0.3486    2.2905 C   0  0  0  0  0  0  0  0  0  0  0  0
    3.9139    0.1822    2.3030 C   0  0  0  0  0  0  0  0  0  0  0  0
    7.1277    1.0636    1.2438 C   0  0  0  0  0  0  0  0  0  0  0  0
   10.1907    0.9513   -1.7432 C   0  0  0  0  0  0  0  0  0  0  0  0
    9.9057    1.0748   -3.0998 C   0  0  0  0  0  0  0  0  0  0  0  0
    6.7548    1.6140   -6.3800 H   0  0  0  0  0  0  0  0  0  0  0  0
    9.0866    1.3337   -5.6355 H   0  0  0  0  0  0  0  0  0  0  0  0
    4.9226    1.6757   -4.7354 H   0  0  0  0  0  0  0  0  0  0  0  0
    4.1621    1.5771   -2.3835 H   0  0  0  0  0  0  0  0  0  0  0  0
    4.6155    1.3686   -0.0668 H   0  0  0  0  0  0  0  0  0  0  0  0
   10.5293    0.7298    0.8436 H   0  0  0  0  0  0  0  0  0  0  0  0
   10.0238    0.6199    3.0906 H   0  0  0  0  0  0  0  0  0  0  0  0
    8.4593    0.6656    4.9689 H   0  0  0  0  0  0  0  0  0  0  0  0
    6.0583    0.9743    4.5570 H   0  0  0  0  0  0  0  0  0  0  0  0
    4.8807    3.4457    2.3976 H   0  0  0  0  0  0  0  0  0  0  0  0
    2.4469    3.7667    2.3713 H   0  0  0  0  0  0  0  0  0  0  0  0
    0.1646    2.8211    2.3253 H   0  0  0  0  0  0  0  0  0  0  0  0
   -2.0993    1.8827    2.2915 H   0  0  0  0  0  0  0  0  0  0  0  0
   -4.3713    0.9437    2.2676 H   0  0  0  0  0  0  0  0  0  0  0  0
  -10.0804   -0.6069    2.8879 H   0  0  0  0  0  0  0  0  0  0  0  0
   -8.5367   -0.5062    4.7816 H   0  0  0  0  0  0  0  0  0  0  0  0
   -6.1223   -0.7620    4.4101 H   0  0  0  0  0  0  0  0  0  0  0  0
  -10.5555   -0.8592    0.6426 H   0  0  0  0  0  0  0  0  0  0  0  0
  -11.2207   -1.1176   -1.6404 H   0  0  0  0  0  0  0  0  0  0  0  0
  -10.6741   -1.4158   -3.9982 H   0  0  0  0  0  0  0  0  0  0  0  0
   -4.8329   -1.7089   -4.8343 H   0  0  0  0  0  0  0  0  0  0  0  0
   -6.6456   -1.8446   -6.4967 H   0  0  0  0  0  0  0  0  0  0  0  0
   -8.9992   -1.6862   -5.7866 H   0  0  0  0  0  0  0  0  0  0  0  0
   -4.1093   -1.4417   -2.4842 H   0  0  0  0  0  0  0  0  0  0  0  0
   -4.6051   -1.1535   -0.1842 H   0  0  0  0  0  0  0  0  0  0  0  0
   -4.9146   -3.3226    2.1859 H   0  0  0  0  0  0  0  0  0  0  0  0
   -2.4814   -3.6446    2.1841 H   0  0  0  0  0  0  0  0  0  0  0  0
   -0.1975   -2.6986    2.2082 H   0  0  0  0  0  0  0  0  0  0  0  0
    2.0670   -1.7599    2.2403 H   0  0  0  0  0  0  0  0  0  0  0  0
    4.3396   -0.8203    2.2909 H   0  0  0  0  0  0  0  0  0  0  0  0
   11.2284    0.8268   -1.4402 H   0  0  0  0  0  0  0  0  0  0  0  0
   10.7234    1.0438   -3.8158 H   0  0  0  0  0  0  0  0  0  0  0  0
  1  2  4  0
  2  3  4  0
  3  4  4  0
  4  5  4  0
  5  6  4  0
  5  7  4  0
  7  8  4  0
  8  9  4  0
  9 10  4  0
 10 11  4  0
 11 12  4  0
 12 13  4  0
 13 14  4  0
 14 15  4  0
 15 16  4  0
 16 17  4  0
 17 18  1  0
 18 19  4  0
 19 20  4  0
 20 21  4  0
 21 22  4  0
 22 23  4  0
 23 24  4  0
 24 25  4  0
 25 26  4  0
 26 27  4  0
 27 28  1  0
 28 29  4  0
 29 30  4  0
 30 31  4  0
 31 32  4  0
 32 33  4  0
 30 34  4  0
 34 35  4  0
 35 36  4  0
 36 37  4  0
 37 38  4  0
 38 39  4  0
 39 40  4  0
 40 41  4  0
 41 42  4  0
 42 43  4  0
 40 44  4  0
 44 45  4  0
 45 46  4  0
 46 47  4  0
 27 48  4  0
 48 49  4  0
 49 50  4  0
 50 51  4  0
 51 52  4  0
 52 53  4  0
 53 54  4  0
 54 55  4  0
 17 56  4  0
 11 57  4  0
 57 58  4  0
  6  1  4  0
 56  9  4  0
 58  3  4  0
 10  4  4  0
 56 13  4  0
 55 18  4  0
 54 21  4  0
 52 23  4  0
 50 25  4  0
 33 28  4  0
 47 35  4  0
 46 29  4  0
 43 38  4  0
 47 39  4  0
  1 59  1  0
  2 60  1  0
  6 61  1  0
  7 62  1  0
  8 63  1  0
 12 64  1  0
 14 65  1  0
 15 66  1  0
 16 67  1  0
 19 68  1  0
 20 69  1  0
 22 70  1  0
 24 71  1  0
 26 72  1  0
 31 73  1  0
 32 74  1  0
 33 75  1  0
 34 76  1  0
 36 77  1  0
 37 78  1  0
 41 79  1  0
 42 80  1  0
 43 81  1  0
 44 82  1  0
 45 83  1  0
 48 84  1  0
 49 85  1  0
 51 86  1  0
 53 87  1  0
 55 88  1  0
 57 89  1  0
 58 90  1  0
M  END
