
     RDKit          3D

 62 69  0  0  0  0  0  0  0  0999 V2000
  -11.0903    0.1569    0.5314 C   0  0  0  0  0  0  0  0  0  0  0  0
  -10.3507    0.8444    1.4890 C   0  0  0  0  0  0  0  0  0  0  0  0
   -8.9649    0.6880    1.5444 C   0  0  0  0  0  0  0  0  0  0  0  0
   -8.3008   -0.1588    0.6419 C   0  0  0  0  0  0  0  0  0  0  0  0
   -6.9052   -0.3271    0.6843 C   0  0  0  0  0  0  0  0  0  0  0  0
   -6.2369   -1.1758   -0.2145 C   0  0  0  0  0  0  0  0  0  0  0  0
   -4.7765   -1.3393   -0.1557 C   0  0  0  0  0  0  0  0  0  0  0  0
   -4.1988   -2.6048    0.0106 C   0  0  0  0  0  0  0  0  0  0  0  0
   -2.8107   -2.7592    0.0681 C   0  0  0  0  0  0  0  0  0  0  0  0
   -1.9604   -1.6495   -0.0421 C   0  0  0  0  0  0  0  0  0  0  0  0
   -0.5635   -1.7873    0.0121 C   0  0  0  0  0  0  0  0  0  0  0  0
    0.2874   -0.6747   -0.1009 C   0  0  0  0  0  0  0  0  0  0  0  0
    1.6849   -0.8120   -0.0471 C   0  0  0  0  0  0  0  0  0  0  0  0
    2.5365    0.2998   -0.1606 C   0  0  0  0  0  0  0  0  0  0  0  0
    3.9359    0.1627   -0.1059 C   0  0  0  0  0  0  0  0  0  0  0  0
    4.7927    1.2708   -0.2216 C   0  0  0  0  0  0  0  0  0  0  0  0
    6.2540    1.1082   -0.1603 C   0  0  0  0  0  0  0  0  0  0  0  0
    6.8666    0.4876    0.9420 C   0  0  0  0  0  0  0  0  0  0  0  0
    8.2616    0.3234    1.0171 C   0  0  0  0  0  0  0  0  0  0  0  0
    8.8687   -0.2953    2.1224 C   0  0  0  0  0  0  0  0  0  0  0  0
   10.2547   -0.4507    2.1818 C   0  0  0  0  0  0  0  0  0  0  0  0
   11.0515    0.0100    1.1380 C   0  0  0  0  0  0  0  0  0  0  0  0
   10.4638    0.6278    0.0330 C   0  0  0  0  0  0  0  0  0  0  0  0
    9.0709    0.7919   -0.0409 C   0  0  0  0  0  0  0  0  0  0  0  0
    8.4641    1.4117   -1.1423 C   0  0  0  0  0  0  0  0  0  0  0  0
    7.0756    1.5675   -1.1991 C   0  0  0  0  0  0  0  0  0  0  0  0
    4.2139    2.5350   -0.3959 C   0  0  0  0  0  0  0  0  0  0  0  0
    2.8254    2.6894   -0.4509 C   0  0  0  0  0  0  0  0  0  0  0  0
    1.9750    1.5804   -0.3345 C   0  0  0  0  0  0  0  0  0  0  0  0
    0.5779    1.7184   -0.3876 C   0  0  0  0  0  0  0  0  0  0  0  0
   -0.2728    0.6061   -0.2725 C   0  0  0  0  0  0  0  0  0  0  0  0
   -1.6702    0.7437   -0.3254 C   0  0  0  0  0  0  0  0  0  0  0  0
   -2.5215   -0.3681   -0.2116 C   0  0  0  0  0  0  0  0  0  0  0  0
   -3.9205   -0.2304   -0.2650 C   0  0  0  0  0  0  0  0  0  0  0  0
   -7.0010   -1.8614   -1.1687 C   0  0  0  0  0  0  0  0  0  0  0  0
   -8.3889   -1.7046   -1.2270 C   0  0  0  0  0  0  0  0  0  0  0  0
   -9.0522   -0.8574   -0.3285 C   0  0  0  0  0  0  0  0  0  0  0  0
  -10.4457   -0.6891   -0.3723 C   0  0  0  0  0  0  0  0  0  0  0  0
  -12.1694    0.2776    0.4871 H   0  0  0  0  0  0  0  0  0  0  0  0
  -10.8511    1.5028    2.1942 H   0  0  0  0  0  0  0  0  0  0  0  0
   -8.4044    1.2334    2.3004 H   0  0  0  0  0  0  0  0  0  0  0  0
   -6.3274    0.2037    1.4395 H   0  0  0  0  0  0  0  0  0  0  0  0
   -4.8309   -3.4853    0.1093 H   0  0  0  0  0  0  0  0  0  0  0  0
   -2.4003   -3.7574    0.2025 H   0  0  0  0  0  0  0  0  0  0  0  0
   -0.1308   -2.7775    0.1436 H   0  0  0  0  0  0  0  0  0  0  0  0
    2.1178   -1.8021    0.0851 H   0  0  0  0  0  0  0  0  0  0  0  0
    4.3697   -0.8286    0.0180 H   0  0  0  0  0  0  0  0  0  0  0  0
    6.2445    0.1358    1.7637 H   0  0  0  0  0  0  0  0  0  0  0  0
    8.2628   -0.6612    2.9483 H   0  0  0  0  0  0  0  0  0  0  0  0
   10.7102   -0.9312    3.0436 H   0  0  0  0  0  0  0  0  0  0  0  0
   12.1308   -0.1100    1.1828 H   0  0  0  0  0  0  0  0  0  0  0  0
   11.1026    0.9821   -0.7728 H   0  0  0  0  0  0  0  0  0  0  0  0
    9.0678    1.7777   -1.9697 H   0  0  0  0  0  0  0  0  0  0  0  0
    6.6361    2.0434   -2.0736 H   0  0  0  0  0  0  0  0  0  0  0  0
    4.8446    3.4181   -0.4785 H   0  0  0  0  0  0  0  0  0  0  0  0
    2.4143    3.6877   -0.5832 H   0  0  0  0  0  0  0  0  0  0  0  0
    0.1454    2.7083   -0.5216 H   0  0  0  0  0  0  0  0  0  0  0  0
   -2.1039    1.7334   -0.4582 H   0  0  0  0  0  0  0  0  0  0  0  0
   -4.3545    0.7586   -0.4066 H   0  0  0  0  0  0  0  0  0  0  0  0
   -6.5157   -2.5188   -1.8875 H   0  0  0  0  0  0  0  0  0  0  0  0
   -8.9470   -2.2500   -1.9844 H   0  0  0  0  0  0  0  0  0  0  0  0
  -11.0406   -1.2186   -1.1130 H   0  0  0  0  0  0  0  0  0  0  0  0
  1  2  4  0
  2  3  4  0
  3  4  4  0
  4  5  4  0
  5  6  4  0
  6  7  1  0
  7  8  4  0
  8  9  4  0
  9 10  4  0
 10 11  4  0
 11 12  4  0
 12 13  4  0
 13 14  4  0
 14 15  4  0
 15 16  4  0
 16 17  1  0
 17 18  4  0
 18 19  4  0
 19 20  4  0
 20 21  4  0
 21 22  4  0
 22 23  4  0
 23 24  4  0
 24 25  4  0
 25 26  4  0
 16 27  4  0
 27 28  4  0
 28 29  4  0
 29 30  4  0
 30 31  4  0
 31 32  4  0
 32 33  4  0
 33 34  4  0
  6 35  4  0
 35 36  4  0
 36 37  4  0
 37 38  4  0
 38  1  4  0
 37  4  4  0
 34  7  4  0
 33 10  4  0
 31 12  4  0
 29 14  4  0
 26 17  4  0
 24 19  4  0
  1 39  1  0
  2 40  1  0
  3 41  1  0
  5 42  1  0
  8 43  1  0
  9 44  1  0
 11 45  1  0
 13 46  1  0
 15 47  1  0
 18 48  1  0
 20 49  1  0
 21 50  1  0
 22 51  1  0
 23 52  1  0
 25 53  1  0
 26 54  1  0
 27 55  1  0
 28 56  1  0
 30 57  1  0
 32 58  1  0
 34 59  1  0
 35 60  1  0
 36 61  1  0
 38 62  1  0
M  END
