
     RDKit          3D

 62 69  0  0  0  0  0  0  0  0999 V2000
    8.6846    0.6427    2.2636 C   0  0  0  0  0  0  0  0  0  0  0  0
    9.2301    0.1461    1.0808 C   0  0  0  0  0  0  0  0  0  0  0  0
    8.4388   -0.0212   -0.0680 C   0  0  0  0  0  0  0  0  0  0  0  0
    9.0084   -0.5207   -1.2486 C   0  0  0  0  0  0  0  0  0  0  0  0
    8.2404   -0.6922   -2.3965 C   0  0  0  0  0  0  0  0  0  0  0  0
    6.8883   -0.3669   -2.3778 C   0  0  0  0  0  0  0  0  0  0  0  0
    6.2797    0.1353   -1.2129 C   0  0  0  0  0  0  0  0  0  0  0  0
    4.8439    0.4520   -1.2610 C   0  0  0  0  0  0  0  0  0  0  0  0
    4.4017    1.7006   -1.7130 C   0  0  0  0  0  0  0  0  0  0  0  0
    3.0377    2.0001   -1.7545 C   0  0  0  0  0  0  0  0  0  0  0  0
    2.0834    1.0562   -1.3456 C   0  0  0  0  0  0  0  0  0  0  0  0
    0.7089    1.3425   -1.3786 C   0  0  0  0  0  0  0  0  0  0  0  0
   -0.2466    0.3974   -0.9683 C   0  0  0  0  0  0  0  0  0  0  0  0
   -1.6218    0.6839   -1.0011 C   0  0  0  0  0  0  0  0  0  0  0  0
   -2.5773   -0.2602   -0.5901 C   0  0  0  0  0  0  0  0  0  0  0  0
   -3.9532    0.0270   -0.6219 C   0  0  0  0  0  0  0  0  0  0  0  0
   -4.9069   -0.9158   -0.2070 C   0  0  0  0  0  0  0  0  0  0  0  0
   -6.3430   -0.5979   -0.2469 C   0  0  0  0  0  0  0  0  0  0  0  0
   -7.0115    0.0521    0.8310 C   0  0  0  0  0  0  0  0  0  0  0  0
   -6.3666    0.4432    2.0284 C   0  0  0  0  0  0  0  0  0  0  0  0
   -7.0579    1.0795    3.0617 C   0  0  0  0  0  0  0  0  0  0  0  0
   -8.4145    1.3421    2.9274 C   0  0  0  0  0  0  0  0  0  0  0  0
   -9.0794    0.9680    1.7607 C   0  0  0  0  0  0  0  0  0  0  0  0
   -8.3981    0.3272    0.7121 C   0  0  0  0  0  0  0  0  0  0  0  0
   -9.0868   -0.0416   -0.4529 C   0  0  0  0  0  0  0  0  0  0  0  0
   -8.4290   -0.6774   -1.5016 C   0  0  0  0  0  0  0  0  0  0  0  0
   -7.0693   -0.9526   -1.3986 C   0  0  0  0  0  0  0  0  0  0  0  0
   -4.4638   -2.1660    0.2399 C   0  0  0  0  0  0  0  0  0  0  0  0
   -3.0998   -2.4666    0.2767 C   0  0  0  0  0  0  0  0  0  0  0  0
   -2.1461   -1.5232   -0.1347 C   0  0  0  0  0  0  0  0  0  0  0  0
   -0.7715   -1.8095   -0.1024 C   0  0  0  0  0  0  0  0  0  0  0  0
    0.1836   -0.8647   -0.5138 C   0  0  0  0  0  0  0  0  0  0  0  0
    1.5586   -1.1516   -0.4810 C   0  0  0  0  0  0  0  0  0  0  0  0
    2.5139   -0.2072   -0.8911 C   0  0  0  0  0  0  0  0  0  0  0  0
    3.8892   -0.4943   -0.8564 C   0  0  0  0  0  0  0  0  0  0  0  0
    7.0614    0.3157   -0.0350 C   0  0  0  0  0  0  0  0  0  0  0  0
    6.5390    0.8190    1.1803 C   0  0  0  0  0  0  0  0  0  0  0  0
    7.3389    0.9797    2.3137 C   0  0  0  0  0  0  0  0  0  0  0  0
    9.3112    0.7661    3.1427 H   0  0  0  0  0  0  0  0  0  0  0  0
   10.2871   -0.1110    1.0620 H   0  0  0  0  0  0  0  0  0  0  0  0
   10.0643   -0.7813   -1.2824 H   0  0  0  0  0  0  0  0  0  0  0  0
    8.6948   -1.0800   -3.3042 H   0  0  0  0  0  0  0  0  0  0  0  0
    6.2973   -0.5081   -3.2812 H   0  0  0  0  0  0  0  0  0  0  0  0
    5.1226    2.4510   -2.0315 H   0  0  0  0  0  0  0  0  0  0  0  0
    2.7276    2.9807   -2.1088 H   0  0  0  0  0  0  0  0  0  0  0  0
    0.3772    2.3183   -1.7289 H   0  0  0  0  0  0  0  0  0  0  0  0
   -1.9548    1.6591   -1.3523 H   0  0  0  0  0  0  0  0  0  0  0  0
   -4.2946    1.0006   -0.9711 H   0  0  0  0  0  0  0  0  0  0  0  0
   -5.3044    0.2523    2.1696 H   0  0  0  0  0  0  0  0  0  0  0  0
   -6.5319    1.3676    3.9680 H   0  0  0  0  0  0  0  0  0  0  0  0
   -8.9568    1.8369    3.7285 H   0  0  0  0  0  0  0  0  0  0  0  0
  -10.1428    1.1820    1.6754 H   0  0  0  0  0  0  0  0  0  0  0  0
  -10.1504    0.1656   -0.5520 H   0  0  0  0  0  0  0  0  0  0  0  0
   -8.9752   -0.9576   -2.3983 H   0  0  0  0  0  0  0  0  0  0  0  0
   -6.5654   -1.4488   -2.2264 H   0  0  0  0  0  0  0  0  0  0  0  0
   -5.1837   -2.9137    0.5671 H   0  0  0  0  0  0  0  0  0  0  0  0
   -2.7889   -3.4467    0.6313 H   0  0  0  0  0  0  0  0  0  0  0  0
   -0.4384   -2.7842    0.2499 H   0  0  0  0  0  0  0  0  0  0  0  0
    1.8918   -2.1267   -0.1298 H   0  0  0  0  0  0  0  0  0  0  0  0
    4.2304   -1.4673   -0.5054 H   0  0  0  0  0  0  0  0  0  0  0  0
    5.4890    1.0956    1.2559 H   0  0  0  0  0  0  0  0  0  0  0  0
    6.9064    1.3687    3.2317 H   0  0  0  0  0  0  0  0  0  0  0  0
  1  2  4  0
  2  3  4  0
  3  4  4  0
  4  5  4  0
  5  6  4  0
  6  7  4  0
  7  8  1  0
  8  9  4  0
  9 10  4  0
 10 11  4  0
 11 12  4  0
 12 13  4  0
 13 14  4  0
 14 15  4  0
 15 16  4  0
 16 17  4  0
 17 18  1  0
 18 19  4  0
 19 20  4  0
 20 21  4  0
 21 22  4  0
 22 23  4  0
 23 24  4  0
 24 25  4  0
 25 26  4  0
 26 27  4  0
 17 28  4  0
 28 29  4  0
 29 30  4  0
 30 31  4  0
 31 32  4  0
 32 33  4  0
 33 34  4  0
 34 35  4  0
  7 36  4  0
 36 37  4  0
 37 38  4  0
 38  1  4  0
 36  3  4  0
 35  8  4  0
 34 11  4  0
 32 13  4  0
 30 15  4  0
 27 18  4  0
 24 19  4  0
  1 39  1  0
  2 40  1  0
  4 41  1  0
  5 42  1  0
  6 43  1  0
  9 44  1  0
 10 45  1  0
 12 46  1  0
 14 47  1  0
 16 48  1  0
 20 49  1  0
 21 50  1  0
 22 51  1  0
 23 52  1  0
 25 53  1  0
 26 54  1  0
 27 55  1  0
 28 56  1  0
 29 57  1  0
 31 58  1  0
 33 59  1  0
 35 60  1  0
 37 61  1  0
 38 62  1  0
M  END
