
     RDKit          3D

 62 69  0  0  0  0  0  0  0  0999 V2000
   -8.5297    2.9305   -0.0345 C   0  0  0  0  0  0  0  0  0  0  0  0
   -7.1949    2.9333   -0.4157 C   0  0  0  0  0  0  0  0  0  0  0  0
   -6.4660    1.7421   -0.4057 C   0  0  0  0  0  0  0  0  0  0  0  0
   -7.0506    0.5144   -0.0133 C   0  0  0  0  0  0  0  0  0  0  0  0
   -8.4159    0.5304    0.3713 C   0  0  0  0  0  0  0  0  0  0  0  0
   -9.1354    1.7371    0.3558 C   0  0  0  0  0  0  0  0  0  0  0  0
   -9.0451   -0.6595    0.7658 C   0  0  0  0  0  0  0  0  0  0  0  0
   -8.3482   -1.8641    0.7866 C   0  0  0  0  0  0  0  0  0  0  0  0
   -7.0088   -1.8941    0.4126 C   0  0  0  0  0  0  0  0  0  0  0  0
   -6.3421   -0.7219    0.0114 C   0  0  0  0  0  0  0  0  0  0  0  0
   -4.9244   -0.8240   -0.3685 C   0  0  0  0  0  0  0  0  0  0  0  0
   -4.5579   -1.1586   -1.6773 C   0  0  0  0  0  0  0  0  0  0  0  0
   -3.2113   -1.2475   -2.0384 C   0  0  0  0  0  0  0  0  0  0  0  0
   -2.1989   -1.0046   -1.0977 C   0  0  0  0  0  0  0  0  0  0  0  0
   -0.8408   -1.0848   -1.4466 C   0  0  0  0  0  0  0  0  0  0  0  0
    0.1732   -0.8395   -0.5054 C   0  0  0  0  0  0  0  0  0  0  0  0
    1.5318   -0.9176   -0.8551 C   0  0  0  0  0  0  0  0  0  0  0  0
    2.5460   -0.6716    0.0852 C   0  0  0  0  0  0  0  0  0  0  0  0
    3.9049   -0.7486   -0.2655 C   0  0  0  0  0  0  0  0  0  0  0  0
    4.9178   -0.4996    0.6740 C   0  0  0  0  0  0  0  0  0  0  0  0
    6.3351   -0.5859    0.2891 C   0  0  0  0  0  0  0  0  0  0  0  0
    6.9890   -1.8225    0.4401 C   0  0  0  0  0  0  0  0  0  0  0  0
    8.3276   -1.9725    0.0929 C   0  0  0  0  0  0  0  0  0  0  0  0
    9.0365   -0.8864   -0.4119 C   0  0  0  0  0  0  0  0  0  0  0  0
    8.4203    0.3628   -0.5770 C   0  0  0  0  0  0  0  0  0  0  0  0
    9.1522    1.4478   -1.0881 C   0  0  0  0  0  0  0  0  0  0  0  0
    8.5592    2.6976   -1.2601 C   0  0  0  0  0  0  0  0  0  0  0  0
    7.2249    2.8796   -0.9227 C   0  0  0  0  0  0  0  0  0  0  0  0
    6.4838    1.8110   -0.4134 C   0  0  0  0  0  0  0  0  0  0  0  0
    7.0557    0.5300   -0.2271 C   0  0  0  0  0  0  0  0  0  0  0  0
    4.5518   -0.1738    1.9852 C   0  0  0  0  0  0  0  0  0  0  0  0
    3.2052   -0.0935    2.3489 C   0  0  0  0  0  0  0  0  0  0  0  0
    2.1925   -0.3394    1.4092 C   0  0  0  0  0  0  0  0  0  0  0  0
    0.8343   -0.2615    1.7585 C   0  0  0  0  0  0  0  0  0  0  0  0
   -0.1798   -0.5072    0.8173 C   0  0  0  0  0  0  0  0  0  0  0  0
   -1.5384   -0.4275    1.1666 C   0  0  0  0  0  0  0  0  0  0  0  0
   -2.5527   -0.6712    0.2258 C   0  0  0  0  0  0  0  0  0  0  0  0
   -3.9118   -0.5873    0.5745 C   0  0  0  0  0  0  0  0  0  0  0  0
   -9.1010    3.8547   -0.0408 H   0  0  0  0  0  0  0  0  0  0  0  0
   -6.7153    3.8591   -0.7225 H   0  0  0  0  0  0  0  0  0  0  0  0
   -5.4224    1.7822   -0.7126 H   0  0  0  0  0  0  0  0  0  0  0  0
  -10.1827    1.7560    0.6500 H   0  0  0  0  0  0  0  0  0  0  0  0
  -10.0923   -0.6562    1.0618 H   0  0  0  0  0  0  0  0  0  0  0  0
   -8.8485   -2.7784    1.0945 H   0  0  0  0  0  0  0  0  0  0  0  0
   -6.4740   -2.8421    0.4346 H   0  0  0  0  0  0  0  0  0  0  0  0
   -5.3249   -1.3459   -2.4264 H   0  0  0  0  0  0  0  0  0  0  0  0
   -2.9601   -1.5061   -3.0647 H   0  0  0  0  0  0  0  0  0  0  0  0
   -0.5690   -1.3409   -2.4690 H   0  0  0  0  0  0  0  0  0  0  0  0
    1.8055   -1.1737   -1.8772 H   0  0  0  0  0  0  0  0  0  0  0  0
    4.1867   -1.0027   -1.2864 H   0  0  0  0  0  0  0  0  0  0  0  0
    6.4450   -2.6796    0.8334 H   0  0  0  0  0  0  0  0  0  0  0  0
    8.8172   -2.9348    0.2152 H   0  0  0  0  0  0  0  0  0  0  0  0
   10.0827   -1.0232   -0.6779 H   0  0  0  0  0  0  0  0  0  0  0  0
   10.1990    1.3259   -1.3584 H   0  0  0  0  0  0  0  0  0  0  0  0
    9.1400    3.5260   -1.6567 H   0  0  0  0  0  0  0  0  0  0  0  0
    6.7554    3.8510   -1.0537 H   0  0  0  0  0  0  0  0  0  0  0  0
    5.4408    1.9906   -0.1597 H   0  0  0  0  0  0  0  0  0  0  0  0
    5.3189    0.0234    2.7315 H   0  0  0  0  0  0  0  0  0  0  0  0
    2.9544    0.1641    3.3755 H   0  0  0  0  0  0  0  0  0  0  0  0
    0.5609   -0.0042    2.7804 H   0  0  0  0  0  0  0  0  0  0  0  0
   -1.8117   -0.1694    2.1883 H   0  0  0  0  0  0  0  0  0  0  0  0
   -4.1935   -0.3275    1.5940 H   0  0  0  0  0  0  0  0  0  0  0  0
  1  2  4  0
  2  3  4  0
  3  4  4  0
  4  5  4  0
  5  6  4  0
  5  7  4  0
  7  8  4  0
  8  9  4  0
  9 10  4  0
 10 11  1  0
 11 12  4  0
 12 13  4  0
 13 14  4  0
 14 15  4  0
 15 16  4  0
 16 17  4  0
 17 18  4  0
 18 19  4  0
 19 20  4  0
 20 21  1  0
 21 22  4  0
 22 23  4  0
 23 24  4  0
 24 25  4  0
 25 26  4  0
 26 27  4  0
 27 28  4  0
 28 29  4  0
 29 30  4  0
 20 31  4  0
 31 32  4  0
 32 33  4  0
 33 34  4  0
 34 35  4  0
 35 36  4  0
 36 37  4  0
 37 38  4  0
  6  1  4  0
 38 11  4  0
 10  4  4  0
 37 14  4  0
 35 16  4  0
 33 18  4  0
 30 21  4  0
 30 25  4  0
  1 39  1  0
  2 40  1  0
  3 41  1  0
  6 42  1  0
  7 43  1  0
  8 44  1  0
  9 45  1  0
 12 46  1  0
 13 47  1  0
 15 48  1  0
 17 49  1  0
 19 50  1  0
 22 51  1  0
 23 52  1  0
 24 53  1  0
 26 54  1  0
 27 55  1  0
 28 56  1  0
 29 57  1  0
 31 58  1  0
 32 59  1  0
 34 60  1  0
 36 61  1  0
 38 62  1  0
M  END
