
     RDKit          3D

 74 83  0  0  0  0  0  0  0  0999 V2000
   -8.6247    4.3790   -1.0799 C   0  0  0  0  0  0  0  0  0  0  0  0
   -7.2576    4.3878   -1.3381 C   0  0  0  0  0  0  0  0  0  0  0  0
   -6.5218    3.2064   -1.2348 C   0  0  0  0  0  0  0  0  0  0  0  0
   -7.1449    2.0007   -0.8715 C   0  0  0  0  0  0  0  0  0  0  0  0
   -6.4189    0.8022   -0.7631 C   0  0  0  0  0  0  0  0  0  0  0  0
   -7.0266   -0.4229   -0.3968 C   0  0  0  0  0  0  0  0  0  0  0  0
   -8.4188   -0.4132   -0.1391 C   0  0  0  0  0  0  0  0  0  0  0  0
   -9.1459    0.7848   -0.2481 C   0  0  0  0  0  0  0  0  0  0  0  0
   -8.5282    1.9916   -0.6100 C   0  0  0  0  0  0  0  0  0  0  0  0
   -9.2568    3.1884   -0.7181 C   0  0  0  0  0  0  0  0  0  0  0  0
   -9.0707   -1.6014    0.2242 C   0  0  0  0  0  0  0  0  0  0  0  0
   -8.3689   -2.7979    0.3365 C   0  0  0  0  0  0  0  0  0  0  0  0
   -7.0012   -2.8215    0.0867 C   0  0  0  0  0  0  0  0  0  0  0  0
   -6.3120   -1.6509   -0.2789 C   0  0  0  0  0  0  0  0  0  0  0  0
   -4.8644   -1.7460   -0.5244 C   0  0  0  0  0  0  0  0  0  0  0  0
   -4.3760   -2.1306   -1.7785 C   0  0  0  0  0  0  0  0  0  0  0  0
   -3.0011   -2.2135   -2.0120 C   0  0  0  0  0  0  0  0  0  0  0  0
   -2.0816   -1.9142   -0.9954 C   0  0  0  0  0  0  0  0  0  0  0  0
   -0.6963   -1.9886   -1.2153 C   0  0  0  0  0  0  0  0  0  0  0  0
    0.2242   -1.6855   -0.1978 C   0  0  0  0  0  0  0  0  0  0  0  0
    1.6102   -1.7580   -0.4175 C   0  0  0  0  0  0  0  0  0  0  0  0
    2.5300   -1.4529    0.5993 C   0  0  0  0  0  0  0  0  0  0  0  0
    3.9164   -1.5256    0.3793 C   0  0  0  0  0  0  0  0  0  0  0  0
    4.8349   -1.2150    1.3944 C   0  0  0  0  0  0  0  0  0  0  0  0
    6.2830   -1.2963    1.1466 C   0  0  0  0  0  0  0  0  0  0  0  0
    6.9495   -2.4841    1.4991 C   0  0  0  0  0  0  0  0  0  0  0  0
    8.3161   -2.6279    1.2868 C   0  0  0  0  0  0  0  0  0  0  0  0
    9.0398   -1.5846    0.7172 C   0  0  0  0  0  0  0  0  0  0  0  0
    8.4110   -0.3844    0.3530 C   0  0  0  0  0  0  0  0  0  0  0  0
    9.1600    0.6574   -0.2208 C   0  0  0  0  0  0  0  0  0  0  0  0
    8.5660    1.8720   -0.5959 C   0  0  0  0  0  0  0  0  0  0  0  0
    9.3165    2.9117   -1.1703 C   0  0  0  0  0  0  0  0  0  0  0  0
    8.7081    4.1133   -1.5363 C   0  0  0  0  0  0  0  0  0  0  0  0
    7.3435    4.2907   -1.3327 C   0  0  0  0  0  0  0  0  0  0  0  0
    6.5861    3.2662   -0.7631 C   0  0  0  0  0  0  0  0  0  0  0  0
    7.1848    2.0510   -0.3901 C   0  0  0  0  0  0  0  0  0  0  0  0
    6.4368    1.0088    0.1842 C   0  0  0  0  0  0  0  0  0  0  0  0
    7.0202   -0.2236    0.5650 C   0  0  0  0  0  0  0  0  0  0  0  0
    4.3450   -0.8313    2.6482 C   0  0  0  0  0  0  0  0  0  0  0  0
    2.9699   -0.7559    2.8825 C   0  0  0  0  0  0  0  0  0  0  0  0
    2.0517   -1.0642    1.8676 C   0  0  0  0  0  0  0  0  0  0  0  0
    0.6666   -0.9934    2.0875 C   0  0  0  0  0  0  0  0  0  0  0  0
   -0.2528   -1.2993    1.0702 C   0  0  0  0  0  0  0  0  0  0  0  0
   -1.6383   -1.2267    1.2909 C   0  0  0  0  0  0  0  0  0  0  0  0
   -2.5589   -1.5287    0.2741 C   0  0  0  0  0  0  0  0  0  0  0  0
   -3.9448   -1.4520    0.4946 C   0  0  0  0  0  0  0  0  0  0  0  0
   -9.2001    5.2973   -1.1601 H   0  0  0  0  0  0  0  0  0  0  0  0
   -6.7617    5.3127   -1.6205 H   0  0  0  0  0  0  0  0  0  0  0  0
   -5.4539    3.2323   -1.4406 H   0  0  0  0  0  0  0  0  0  0  0  0
   -5.3502    0.8272   -0.9717 H   0  0  0  0  0  0  0  0  0  0  0  0
  -10.2161    0.7789   -0.0474 H   0  0  0  0  0  0  0  0  0  0  0  0
  -10.3262    3.2004   -0.5205 H   0  0  0  0  0  0  0  0  0  0  0  0
  -10.1404   -1.6034    0.4241 H   0  0  0  0  0  0  0  0  0  0  0  0
   -8.8873   -3.7102    0.6190 H   0  0  0  0  0  0  0  0  0  0  0  0
   -6.4617   -3.7626    0.1798 H   0  0  0  0  0  0  0  0  0  0  0  0
   -5.0686   -2.3624   -2.5852 H   0  0  0  0  0  0  0  0  0  0  0  0
   -2.6546   -2.5120   -2.9989 H   0  0  0  0  0  0  0  0  0  0  0  0
   -0.3287   -2.2857   -2.1958 H   0  0  0  0  0  0  0  0  0  0  0  0
    1.9807   -2.0555   -1.3970 H   0  0  0  0  0  0  0  0  0  0  0  0
    4.2942   -1.8256   -0.5972 H   0  0  0  0  0  0  0  0  0  0  0  0
    6.3927   -3.3079    1.9426 H   0  0  0  0  0  0  0  0  0  0  0  0
    8.8162   -3.5520    1.5638 H   0  0  0  0  0  0  0  0  0  0  0  0
   10.1083   -1.7166    0.5587 H   0  0  0  0  0  0  0  0  0  0  0  0
   10.2285    0.5211   -0.3794 H   0  0  0  0  0  0  0  0  0  0  0  0
   10.3846    2.7917   -1.3371 H   0  0  0  0  0  0  0  0  0  0  0  0
    9.3006    4.9093   -1.9795 H   0  0  0  0  0  0  0  0  0  0  0  0
    6.8667    5.2252   -1.6163 H   0  0  0  0  0  0  0  0  0  0  0  0
    5.5202    3.4223   -0.6114 H   0  0  0  0  0  0  0  0  0  0  0  0
    5.3702    1.1654    0.3388 H   0  0  0  0  0  0  0  0  0  0  0  0
    5.0368   -0.5842    3.4510 H   0  0  0  0  0  0  0  0  0  0  0  0
    2.6224   -0.4525    3.8676 H   0  0  0  0  0  0  0  0  0  0  0  0
    0.2967   -0.6936    3.0664 H   0  0  0  0  0  0  0  0  0  0  0  0
   -2.0072   -0.9283    2.2707 H   0  0  0  0  0  0  0  0  0  0  0  0
   -4.3212   -1.1531    1.4720 H   0  0  0  0  0  0  0  0  0  0  0  0
  1  2  4  0
  2  3  4  0
  3  4  4  0
  4  5  4  0
  5  6  4  0
  6  7  4  0
  7  8  4  0
  8  9  4  0
  9 10  4  0
  7 11  4  0
 11 12  4  0
 12 13  4  0
 13 14  4  0
 14 15  1  0
 15 16  4  0
 16 17  4  0
 17 18  4  0
 18 19  4  0
 19 20  4  0
 20 21  4  0
 21 22  4  0
 22 23  4  0
 23 24  4  0
 24 25  1  0
 25 26  4  0
 26 27  4  0
 27 28  4  0
 28 29  4  0
 29 30  4  0
 30 31  4  0
 31 32  4  0
 32 33  4  0
 33 34  4  0
 34 35  4  0
 35 36  4  0
 36 37  4  0
 37 38  4  0
 24 39  4  0
 39 40  4  0
 40 41  4  0
 41 42  4  0
 42 43  4  0
 43 44  4  0
 44 45  4  0
 45 46  4  0
 10  1  4  0
 46 15  4  0
  9  4  4  0
 45 18  4  0
 14  6  4  0
 43 20  4  0
 41 22  4  0
 38 25  4  0
 38 29  4  0
 36 31  4  0
  1 47  1  0
  2 48  1  0
  3 49  1  0
  5 50  1  0
  8 51  1  0
 10 52  1  0
 11 53  1  0
 12 54  1  0
 13 55  1  0
 16 56  1  0
 17 57  1  0
 19 58  1  0
 21 59  1  0
 23 60  1  0
 26 61  1  0
 27 62  1  0
 28 63  1  0
 30 64  1  0
 32 65  1  0
 33 66  1  0
 34 67  1  0
 35 68  1  0
 37 69  1  0
 39 70  1  0
 40 71  1  0
 42 72  1  0
 44 73  1  0
 46 74  1  0
M  END
