
     RDKit          3D

 74 83  0  0  0  0  0  0  0  0999 V2000
   -8.5524   -3.1900   -1.6791 C   0  0  0  0  0  0  0  0  0  0  0  0
   -7.2100   -3.0684   -2.0051 C   0  0  0  0  0  0  0  0  0  0  0  0
   -6.4743   -1.9832   -1.5230 C   0  0  0  0  0  0  0  0  0  0  0  0
   -7.0558   -0.9855   -0.7004 C   0  0  0  0  0  0  0  0  0  0  0  0
   -8.4245   -1.1308   -0.3804 C   0  0  0  0  0  0  0  0  0  0  0  0
   -9.1546   -2.2272   -0.8721 C   0  0  0  0  0  0  0  0  0  0  0  0
   -9.0549   -0.1790    0.4301 C   0  0  0  0  0  0  0  0  0  0  0  0
   -8.3678    0.9277    0.9435 C   0  0  0  0  0  0  0  0  0  0  0  0
   -9.0418    1.8574    1.7551 C   0  0  0  0  0  0  0  0  0  0  0  0
   -8.3824    2.9669    2.2798 C   0  0  0  0  0  0  0  0  0  0  0  0
   -7.0384    3.1612    1.9989 C   0  0  0  0  0  0  0  0  0  0  0  0
   -6.3583    2.2449    1.1934 C   0  0  0  0  0  0  0  0  0  0  0  0
   -6.9985    1.1052    0.6436 C   0  0  0  0  0  0  0  0  0  0  0  0
   -6.3383    0.1417   -0.1855 C   0  0  0  0  0  0  0  0  0  0  0  0
   -4.9053    0.3126   -0.5092 C   0  0  0  0  0  0  0  0  0  0  0  0
   -4.5096    1.0178   -1.6527 C   0  0  0  0  0  0  0  0  0  0  0  0
   -3.1555    1.1869   -1.9505 C   0  0  0  0  0  0  0  0  0  0  0  0
   -2.1650    0.6562   -1.1102 C   0  0  0  0  0  0  0  0  0  0  0  0
   -0.7996    0.8241   -1.3916 C   0  0  0  0  0  0  0  0  0  0  0  0
    0.1920    0.2995   -0.5459 C   0  0  0  0  0  0  0  0  0  0  0  0
    1.5576    0.4748   -0.8240 C   0  0  0  0  0  0  0  0  0  0  0  0
    2.5496   -0.0407    0.0258 C   0  0  0  0  0  0  0  0  0  0  0  0
    3.9149    0.1437   -0.2488 C   0  0  0  0  0  0  0  0  0  0  0  0
    4.9065   -0.3622    0.6070 C   0  0  0  0  0  0  0  0  0  0  0  0
    6.3389   -0.1446    0.3101 C   0  0  0  0  0  0  0  0  0  0  0  0
    7.0666   -1.1202   -0.4441 C   0  0  0  0  0  0  0  0  0  0  0  0
    6.4958   -2.3174   -0.9453 C   0  0  0  0  0  0  0  0  0  0  0  0
    7.2413   -3.2447   -1.6769 C   0  0  0  0  0  0  0  0  0  0  0  0
    8.5829   -3.0032   -1.9312 C   0  0  0  0  0  0  0  0  0  0  0  0
    9.1745   -1.8354   -1.4546 C   0  0  0  0  0  0  0  0  0  0  0  0
    8.4344   -0.8941   -0.7173 C   0  0  0  0  0  0  0  0  0  0  0  0
    9.0538    0.2725   -0.2528 C   0  0  0  0  0  0  0  0  0  0  0  0
    8.3563    1.2379    0.4834 C   0  0  0  0  0  0  0  0  0  0  0  0
    9.0187    2.3961    0.9272 C   0  0  0  0  0  0  0  0  0  0  0  0
    8.3485    3.3729    1.6606 C   0  0  0  0  0  0  0  0  0  0  0  0
    7.0054    3.2031    1.9612 C   0  0  0  0  0  0  0  0  0  0  0  0
    6.3369    2.0564    1.5266 C   0  0  0  0  0  0  0  0  0  0  0  0
    6.9878    1.0439    0.7769 C   0  0  0  0  0  0  0  0  0  0  0  0
    4.5119   -1.0689    1.7499 C   0  0  0  0  0  0  0  0  0  0  0  0
    3.1581   -1.2642    2.0327 C   0  0  0  0  0  0  0  0  0  0  0  0
    2.1669   -0.7537    1.1808 C   0  0  0  0  0  0  0  0  0  0  0  0
    0.8015   -0.9340    1.4551 C   0  0  0  0  0  0  0  0  0  0  0  0
   -0.1908   -0.4138    0.6071 C   0  0  0  0  0  0  0  0  0  0  0  0
   -1.5568   -0.5860    0.8864 C   0  0  0  0  0  0  0  0  0  0  0  0
   -2.5485   -0.0581    0.0438 C   0  0  0  0  0  0  0  0  0  0  0  0
   -3.9143   -0.2230    0.3292 C   0  0  0  0  0  0  0  0  0  0  0  0
   -9.1316   -4.0311   -2.0501 H   0  0  0  0  0  0  0  0  0  0  0  0
   -6.7292   -3.8135   -2.6333 H   0  0  0  0  0  0  0  0  0  0  0  0
   -5.4234   -1.9252   -1.8013 H   0  0  0  0  0  0  0  0  0  0  0  0
  -10.2088   -2.3406   -0.6269 H   0  0  0  0  0  0  0  0  0  0  0  0
  -10.1104   -0.3035    0.6690 H   0  0  0  0  0  0  0  0  0  0  0  0
  -10.0963    1.7221    1.9870 H   0  0  0  0  0  0  0  0  0  0  0  0
   -8.9187    3.6751    2.9054 H   0  0  0  0  0  0  0  0  0  0  0  0
   -6.5130    4.0225    2.4027 H   0  0  0  0  0  0  0  0  0  0  0  0
   -5.3044    2.4342    0.9971 H   0  0  0  0  0  0  0  0  0  0  0  0
   -5.2600    1.4420   -2.3170 H   0  0  0  0  0  0  0  0  0  0  0  0
   -2.8816    1.7414   -2.8454 H   0  0  0  0  0  0  0  0  0  0  0  0
   -0.5026    1.3763   -2.2815 H   0  0  0  0  0  0  0  0  0  0  0  0
    1.8541    1.0261   -1.7147 H   0  0  0  0  0  0  0  0  0  0  0  0
    4.2194    0.6940   -1.1381 H   0  0  0  0  0  0  0  0  0  0  0  0
    5.4457   -2.5439   -0.7689 H   0  0  0  0  0  0  0  0  0  0  0  0
    6.7686   -4.1516   -2.0446 H   0  0  0  0  0  0  0  0  0  0  0  0
    9.1695   -3.7197   -2.4994 H   0  0  0  0  0  0  0  0  0  0  0  0
   10.2281   -1.6633   -1.6655 H   0  0  0  0  0  0  0  0  0  0  0  0
   10.1086    0.4344   -0.4714 H   0  0  0  0  0  0  0  0  0  0  0  0
   10.0726    2.5475    0.7018 H   0  0  0  0  0  0  0  0  0  0  0  0
    8.8756    4.2622    1.9949 H   0  0  0  0  0  0  0  0  0  0  0  0
    6.4719    3.9579    2.5327 H   0  0  0  0  0  0  0  0  0  0  0  0
    5.2835    1.9613    1.7843 H   0  0  0  0  0  0  0  0  0  0  0  0
    5.2629   -1.4697    2.4280 H   0  0  0  0  0  0  0  0  0  0  0  0
    2.8849   -1.8165    2.9292 H   0  0  0  0  0  0  0  0  0  0  0  0
    0.5050   -1.4848    2.3460 H   0  0  0  0  0  0  0  0  0  0  0  0
   -1.8539   -1.1367    1.7774 H   0  0  0  0  0  0  0  0  0  0  0  0
   -4.2199   -0.7718    1.2190 H   0  0  0  0  0  0  0  0  0  0  0  0
  1  2  4  0
  2  3  4  0
  3  4  4  0
  4  5  4  0
  5  6  4  0
  5  7  4  0
  7  8  4  0
  8  9  4  0
  9 10  4  0
 10 11  4  0
 11 12  4  0
 12 13  4  0
 13 14  4  0
 14 15  1  0
 15 16  4  0
 16 17  4  0
 17 18  4  0
 18 19  4  0
 19 20  4  0
 20 21  4  0
 21 22  4  0
 22 23  4  0
 23 24  4  0
 24 25  1  0
 25 26  4  0
 26 27  4  0
 27 28  4  0
 28 29  4  0
 29 30  4  0
 30 31  4  0
 31 32  4  0
 32 33  4  0
 33 34  4  0
 34 35  4  0
 35 36  4  0
 36 37  4  0
 37 38  4  0
 24 39  4  0
 39 40  4  0
 40 41  4  0
 41 42  4  0
 42 43  4  0
 43 44  4  0
 44 45  4  0
 45 46  4  0
  6  1  4  0
 13  8  4  0
 46 15  4  0
 14  4  4  0
 45 18  4  0
 43 20  4  0
 41 22  4  0
 38 25  4  0
 31 26  4  0
 38 33  4  0
  1 47  1  0
  2 48  1  0
  3 49  1  0
  6 50  1  0
  7 51  1  0
  9 52  1  0
 10 53  1  0
 11 54  1  0
 12 55  1  0
 16 56  1  0
 17 57  1  0
 19 58  1  0
 21 59  1  0
 23 60  1  0
 27 61  1  0
 28 62  1  0
 29 63  1  0
 30 64  1  0
 32 65  1  0
 34 66  1  0
 35 67  1  0
 36 68  1  0
 37 69  1  0
 39 70  1  0
 40 71  1  0
 42 72  1  0
 44 73  1  0
 46 74  1  0
M  END
