
     RDKit          3D

 94107  0  0  0  0  0  0  0  0999 V2000
   10.5014    0.1801    5.8869 C   0  0  0  0  0  0  0  0  0  0  0  0
    9.2050   -0.1464    6.2739 C   0  0  0  0  0  0  0  0  0  0  0  0
    8.2130   -0.3235    5.3086 C   0  0  0  0  0  0  0  0  0  0  0  0
    8.5075   -0.1753    3.9435 C   0  0  0  0  0  0  0  0  0  0  0  0
    7.5268   -0.3487    2.9554 C   0  0  0  0  0  0  0  0  0  0  0  0
    7.8168   -0.2036    1.6051 C   0  0  0  0  0  0  0  0  0  0  0  0
    6.8451   -0.3810    0.6943 N   0  0  0  0  0  0  0  0  0  0  0  0
    7.1452   -0.2368   -0.6188 C   0  0  0  0  0  0  0  0  0  0  0  0
    8.4633    0.0951   -0.9926 C   0  0  0  0  0  0  0  0  0  0  0  0
    9.4409    0.2745   -0.0854 N   0  0  0  0  0  0  0  0  0  0  0  0
    9.1253    0.1265    1.2125 C   0  0  0  0  0  0  0  0  0  0  0  0
   10.1027    0.3003    2.1846 C   0  0  0  0  0  0  0  0  0  0  0  0
    9.8195    0.1552    3.5513 C   0  0  0  0  0  0  0  0  0  0  0  0
   10.8082    0.3302    4.5336 C   0  0  0  0  0  0  0  0  0  0  0  0
    8.7814    0.2452   -2.3309 C   0  0  0  0  0  0  0  0  0  0  0  0
    7.8339    0.0753   -3.3450 C   0  0  0  0  0  0  0  0  0  0  0  0
    8.2041    0.2349   -4.6916 C   0  0  0  0  0  0  0  0  0  0  0  0
    7.2751    0.0659   -5.7158 C   0  0  0  0  0  0  0  0  0  0  0  0
    5.9642   -0.2656   -5.4052 C   0  0  0  0  0  0  0  0  0  0  0  0
    5.5859   -0.4257   -4.0701 C   0  0  0  0  0  0  0  0  0  0  0  0
    6.5062   -0.2588   -3.0053 C   0  0  0  0  0  0  0  0  0  0  0  0
    6.1683   -0.4112   -1.6242 C   0  0  0  0  0  0  0  0  0  0  0  0
    4.7857   -0.7564   -1.2263 C   0  0  0  0  0  0  0  0  0  0  0  0
    4.4126   -2.0903   -1.0199 C   0  0  0  0  0  0  0  0  0  0  0  0
    3.1009   -2.4167   -0.6654 C   0  0  0  0  0  0  0  0  0  0  0  0
    2.1285   -1.4167   -0.5085 C   0  0  0  0  0  0  0  0  0  0  0  0
    0.8033   -1.7285   -0.1590 C   0  0  0  0  0  0  0  0  0  0  0  0
   -0.1699   -0.7264   -0.0004 C   0  0  0  0  0  0  0  0  0  0  0  0
   -1.4961   -1.0374    0.3480 C   0  0  0  0  0  0  0  0  0  0  0  0
   -2.4674   -0.0347    0.5102 C   0  0  0  0  0  0  0  0  0  0  0  0
   -3.7929   -0.3451    0.8635 C   0  0  0  0  0  0  0  0  0  0  0  0
   -4.7602    0.6594    1.0356 C   0  0  0  0  0  0  0  0  0  0  0  0
   -6.1426    0.3174    1.4364 C   0  0  0  0  0  0  0  0  0  0  0  0
   -6.4617    0.0962    2.8127 C   0  0  0  0  0  0  0  0  0  0  0  0
   -5.5234    0.1955    3.8702 C   0  0  0  0  0  0  0  0  0  0  0  0
   -5.8832   -0.0318    5.2004 C   0  0  0  0  0  0  0  0  0  0  0  0
   -7.1933   -0.3636    5.5138 C   0  0  0  0  0  0  0  0  0  0  0  0
   -8.1402   -0.4651    4.4972 C   0  0  0  0  0  0  0  0  0  0  0  0
   -7.7886   -0.2377    3.1553 C   0  0  0  0  0  0  0  0  0  0  0  0
   -8.7538   -0.3390    2.1490 C   0  0  0  0  0  0  0  0  0  0  0  0
   -8.4541   -0.1200    0.8159 C   0  0  0  0  0  0  0  0  0  0  0  0
   -9.4482   -0.2359   -0.0835 N   0  0  0  0  0  0  0  0  0  0  0  0
   -9.1510   -0.0223   -1.3764 C   0  0  0  0  0  0  0  0  0  0  0  0
  -10.1461   -0.1305   -2.3397 C   0  0  0  0  0  0  0  0  0  0  0  0
   -9.8824    0.0840   -3.7010 C   0  0  0  0  0  0  0  0  0  0  0  0
  -10.8894   -0.0251   -4.6738 C   0  0  0  0  0  0  0  0  0  0  0  0
  -10.6030    0.1927   -6.0222 C   0  0  0  0  0  0  0  0  0  0  0  0
   -9.3086    0.5217   -6.4139 C   0  0  0  0  0  0  0  0  0  0  0  0
   -8.2981    0.6334   -5.4577 C   0  0  0  0  0  0  0  0  0  0  0  0
   -8.5722    0.4171   -4.0973 C   0  0  0  0  0  0  0  0  0  0  0  0
   -7.5736    0.5239   -3.1178 C   0  0  0  0  0  0  0  0  0  0  0  0
   -7.8442    0.3105   -1.7725 C   0  0  0  0  0  0  0  0  0  0  0  0
   -6.8560    0.4253   -0.8693 N   0  0  0  0  0  0  0  0  0  0  0  0
   -7.1375    0.2134    0.4389 C   0  0  0  0  0  0  0  0  0  0  0  0
   -4.3829    1.9928    0.8335 C   0  0  0  0  0  0  0  0  0  0  0  0
   -3.0710    2.3161    0.4781 C   0  0  0  0  0  0  0  0  0  0  0  0
   -2.1028    1.3134    0.3168 C   0  0  0  0  0  0  0  0  0  0  0  0
   -0.7784    1.6238   -0.0334 C   0  0  0  0  0  0  0  0  0  0  0  0
    0.1927    0.6208   -0.1943 C   0  0  0  0  0  0  0  0  0  0  0  0
    1.5177    0.9329   -0.5444 C   0  0  0  0  0  0  0  0  0  0  0  0
    2.4902   -0.0684   -0.7052 C   0  0  0  0  0  0  0  0  0  0  0  0
    3.8148    0.2452   -1.0592 C   0  0  0  0  0  0  0  0  0  0  0  0
   11.2753    0.3177    6.6379 H   0  0  0  0  0  0  0  0  0  0  0  0
    8.9642   -0.2644    7.3273 H   0  0  0  0  0  0  0  0  0  0  0  0
    7.2050   -0.5796    5.6290 H   0  0  0  0  0  0  0  0  0  0  0  0
    6.5067   -0.6040    3.2348 H   0  0  0  0  0  0  0  0  0  0  0  0
   11.1090    0.5549    1.8592 H   0  0  0  0  0  0  0  0  0  0  0  0
   11.8275    0.5851    4.2505 H   0  0  0  0  0  0  0  0  0  0  0  0
    9.8089    0.5023   -2.5830 H   0  0  0  0  0  0  0  0  0  0  0  0
    9.2283    0.4933   -4.9548 H   0  0  0  0  0  0  0  0  0  0  0  0
    7.5763    0.1922   -6.7524 H   0  0  0  0  0  0  0  0  0  0  0  0
    5.2317   -0.4012   -6.1968 H   0  0  0  0  0  0  0  0  0  0  0  0
    4.5485   -0.6880   -3.8678 H   0  0  0  0  0  0  0  0  0  0  0  0
    5.1469   -2.8854   -1.1313 H   0  0  0  0  0  0  0  0  0  0  0  0
    2.8464   -3.4629   -0.5111 H   0  0  0  0  0  0  0  0  0  0  0  0
    0.5246   -2.7699   -0.0076 H   0  0  0  0  0  0  0  0  0  0  0  0
   -1.7779   -2.0785    0.4958 H   0  0  0  0  0  0  0  0  0  0  0  0
   -4.0812   -1.3848    1.0108 H   0  0  0  0  0  0  0  0  0  0  0  0
   -4.4864    0.4579    3.6660 H   0  0  0  0  0  0  0  0  0  0  0  0
   -5.1370    0.0529    5.9864 H   0  0  0  0  0  0  0  0  0  0  0  0
   -7.4800   -0.5415    6.5469 H   0  0  0  0  0  0  0  0  0  0  0  0
   -9.1638   -0.7237    4.7621 H   0  0  0  0  0  0  0  0  0  0  0  0
   -9.7810   -0.5953    2.4032 H   0  0  0  0  0  0  0  0  0  0  0  0
  -11.1506   -0.3889   -2.0119 H   0  0  0  0  0  0  0  0  0  0  0  0
  -11.9072   -0.2816   -4.3870 H   0  0  0  0  0  0  0  0  0  0  0  0
  -11.3910    0.1052   -6.7660 H   0  0  0  0  0  0  0  0  0  0  0  0
   -9.0839    0.6912   -7.4639 H   0  0  0  0  0  0  0  0  0  0  0  0
   -7.2920    0.8909   -5.7825 H   0  0  0  0  0  0  0  0  0  0  0  0
   -6.5544    0.7796   -3.4002 H   0  0  0  0  0  0  0  0  0  0  0  0
   -5.1142    2.7901    0.9492 H   0  0  0  0  0  0  0  0  0  0  0  0
   -2.8129    3.3617    0.3262 H   0  0  0  0  0  0  0  0  0  0  0  0
   -0.4977    2.6650   -0.1825 H   0  0  0  0  0  0  0  0  0  0  0  0
    1.7981    1.9741   -0.6939 H   0  0  0  0  0  0  0  0  0  0  0  0
    4.1004    1.2852   -1.2090 H   0  0  0  0  0  0  0  0  0  0  0  0
  1  2  4  0
  2  3  4  0
  3  4  4  0
  4  5  4  0
  5  6  4  0
  6  7  4  0
  7  8  4  0
  8  9  4  0
  9 10  4  0
 10 11  4  0
 11 12  4  0
 12 13  4  0
 13 14  4  0
  9 15  4  0
 15 16  4  0
 16 17  4  0
 17 18  4  0
 18 19  4  0
 19 20  4  0
 20 21  4  0
 21 22  4  0
 22 23  1  0
 23 24  4  0
 24 25  4  0
 25 26  4  0
 26 27  4  0
 27 28  4  0
 28 29  4  0
 29 30  4  0
 30 31  4  0
 31 32  4  0
 32 33  1  0
 33 34  4  0
 34 35  4  0
 35 36  4  0
 36 37  4  0
 37 38  4  0
 38 39  4  0
 39 40  4  0
 40 41  4  0
 41 42  4  0
 42 43  4  0
 43 44  4  0
 44 45  4  0
 45 46  4  0
 46 47  4  0
 47 48  4  0
 48 49  4  0
 49 50  4  0
 50 51  4  0
 51 52  4  0
 52 53  4  0
 53 54  4  0
 32 55  4  0
 55 56  4  0
 56 57  4  0
 57 58  4  0
 58 59  4  0
 59 60  4  0
 60 61  4  0
 61 62  4  0
 14  1  4  0
 21 16  4  0
 62 23  4  0
 13  4  4  0
 61 26  4  0
 11  6  4  0
 59 28  4  0
 22  8  4  0
 57 30  4  0
 54 33  4  0
 39 34  4  0
 54 41  4  0
 52 43  4  0
 50 45  4  0
  1 63  1  0
  2 64  1  0
  3 65  1  0
  5 66  1  0
 12 67  1  0
 14 68  1  0
 15 69  1  0
 17 70  1  0
 18 71  1  0
 19 72  1  0
 20 73  1  0
 24 74  1  0
 25 75  1  0
 27 76  1  0
 29 77  1  0
 31 78  1  0
 35 79  1  0
 36 80  1  0
 37 81  1  0
 38 82  1  0
 40 83  1  0
 44 84  1  0
 46 85  1  0
 47 86  1  0
 48 87  1  0
 49 88  1  0
 51 89  1  0
 55 90  1  0
 56 91  1  0
 58 92  1  0
 60 93  1  0
 62 94  1  0
M  END
