
     RDKit          3D

 94107  0  0  0  0  0  0  0  0999 V2000
  -17.1801   -1.1605    2.7257 C   0  0  0  0  0  0  0  0  0  0  0  0
  -16.4619   -1.7933    3.7360 C   0  0  0  0  0  0  0  0  0  0  0  0
  -15.0667   -1.7614    3.7247 C   0  0  0  0  0  0  0  0  0  0  0  0
  -14.3739   -1.0950    2.7009 C   0  0  0  0  0  0  0  0  0  0  0  0
  -12.9720   -1.0496    2.6685 C   0  0  0  0  0  0  0  0  0  0  0  0
  -12.2845   -0.3913    1.6572 C   0  0  0  0  0  0  0  0  0  0  0  0
  -10.9393   -0.3767    1.6711 N   0  0  0  0  0  0  0  0  0  0  0  0
  -10.3144    0.2730    0.6727 C   0  0  0  0  0  0  0  0  0  0  0  0
   -8.9265    0.3138    0.6468 C   0  0  0  0  0  0  0  0  0  0  0  0
   -8.2248    0.9767   -0.3714 C   0  0  0  0  0  0  0  0  0  0  0  0
   -6.8189    1.0158   -0.3949 C   0  0  0  0  0  0  0  0  0  0  0  0
   -6.1170    1.6823   -1.4137 C   0  0  0  0  0  0  0  0  0  0  0  0
   -4.6460    1.7137   -1.4233 C   0  0  0  0  0  0  0  0  0  0  0  0
   -3.9504    2.9296   -1.4588 C   0  0  0  0  0  0  0  0  0  0  0  0
   -2.5527    2.9589   -1.4633 C   0  0  0  0  0  0  0  0  0  0  0  0
   -1.8105    1.7696   -1.4343 C   0  0  0  0  0  0  0  0  0  0  0  0
   -0.4061    1.7818   -1.4378 C   0  0  0  0  0  0  0  0  0  0  0  0
    0.3373    0.5898   -1.4106 C   0  0  0  0  0  0  0  0  0  0  0  0
    1.7425    0.6024   -1.4138 C   0  0  0  0  0  0  0  0  0  0  0  0
    2.4868   -0.5888   -1.3863 C   0  0  0  0  0  0  0  0  0  0  0  0
    3.8936   -0.5765   -1.3875 C   0  0  0  0  0  0  0  0  0  0  0  0
    4.6429   -1.7651   -1.3616 C   0  0  0  0  0  0  0  0  0  0  0  0
    6.1131   -1.7324   -1.3582 C   0  0  0  0  0  0  0  0  0  0  0  0
    6.8166   -1.0285   -0.3663 C   0  0  0  0  0  0  0  0  0  0  0  0
    8.2221   -0.9890   -0.3474 C   0  0  0  0  0  0  0  0  0  0  0  0
    8.9264   -0.2894    0.6443 C   0  0  0  0  0  0  0  0  0  0  0  0
   10.3143   -0.2488    0.6654 C   0  0  0  0  0  0  0  0  0  0  0  0
   10.9430    0.4366    1.6373 N   0  0  0  0  0  0  0  0  0  0  0  0
   12.2881    0.4484    1.6191 C   0  0  0  0  0  0  0  0  0  0  0  0
   12.9793    1.1429    2.6032 C   0  0  0  0  0  0  0  0  0  0  0  0
   14.3813    1.1870    2.6300 C   0  0  0  0  0  0  0  0  0  0  0  0
   15.0780    1.8900    3.6264 C   0  0  0  0  0  0  0  0  0  0  0  0
   16.4732    1.9199    3.6328 C   0  0  0  0  0  0  0  0  0  0  0  0
   17.1877    1.2486    2.6449 C   0  0  0  0  0  0  0  0  0  0  0  0
   16.5082    0.5461    1.6488 C   0  0  0  0  0  0  0  0  0  0  0  0
   15.1045    0.5075    1.6301 C   0  0  0  0  0  0  0  0  0  0  0  0
   14.3999   -0.1921    0.6389 C   0  0  0  0  0  0  0  0  0  0  0  0
   13.0119   -0.2318    0.6182 C   0  0  0  0  0  0  0  0  0  0  0  0
   12.3830   -0.9167   -0.3541 N   0  0  0  0  0  0  0  0  0  0  0  0
   11.0381   -0.9287   -0.3355 C   0  0  0  0  0  0  0  0  0  0  0  0
   10.3470   -1.6233   -1.3192 C   0  0  0  0  0  0  0  0  0  0  0  0
    8.9453   -1.6679   -1.3449 C   0  0  0  0  0  0  0  0  0  0  0  0
    8.2499   -2.3717   -2.3379 C   0  0  0  0  0  0  0  0  0  0  0  0
    6.8525   -2.4031   -2.3420 C   0  0  0  0  0  0  0  0  0  0  0  0
    3.9490   -2.9819   -1.3354 C   0  0  0  0  0  0  0  0  0  0  0  0
    2.5516   -3.0120   -1.3320 C   0  0  0  0  0  0  0  0  0  0  0  0
    1.8081   -1.8232   -1.3573 C   0  0  0  0  0  0  0  0  0  0  0  0
    0.4035   -1.8363   -1.3538 C   0  0  0  0  0  0  0  0  0  0  0  0
   -0.3406   -0.6444   -1.3795 C   0  0  0  0  0  0  0  0  0  0  0  0
   -1.7459   -0.6561   -1.3749 C   0  0  0  0  0  0  0  0  0  0  0  0
   -2.4899    0.5357   -1.4008 C   0  0  0  0  0  0  0  0  0  0  0  0
   -3.8969    0.5247   -1.3951 C   0  0  0  0  0  0  0  0  0  0  0  0
   -6.8597    2.3161   -2.4195 C   0  0  0  0  0  0  0  0  0  0  0  0
   -8.2573    2.2848   -2.4107 C   0  0  0  0  0  0  0  0  0  0  0  0
   -8.9510    1.6180   -1.3912 C   0  0  0  0  0  0  0  0  0  0  0  0
  -10.3532    1.5733   -1.3606 C   0  0  0  0  0  0  0  0  0  0  0  0
  -11.0420    0.9145   -0.3505 C   0  0  0  0  0  0  0  0  0  0  0  0
  -12.3873    0.8994   -0.3650 N   0  0  0  0  0  0  0  0  0  0  0  0
  -13.0124    0.2500    0.6338 C   0  0  0  0  0  0  0  0  0  0  0  0
  -14.4003    0.2088    0.6598 C   0  0  0  0  0  0  0  0  0  0  0  0
  -15.1009   -0.4545    1.6783 C   0  0  0  0  0  0  0  0  0  0  0  0
  -16.5045   -0.4946    1.7022 C   0  0  0  0  0  0  0  0  0  0  0  0
  -18.2669   -1.1846    2.7334 H   0  0  0  0  0  0  0  0  0  0  0  0
  -16.9869   -2.3124    4.5340 H   0  0  0  0  0  0  0  0  0  0  0  0
  -14.5229   -2.2618    4.5232 H   0  0  0  0  0  0  0  0  0  0  0  0
  -12.3921   -1.5378    3.4489 H   0  0  0  0  0  0  0  0  0  0  0  0
   -8.3851   -0.1876    1.4464 H   0  0  0  0  0  0  0  0  0  0  0  0
   -6.2581    0.5282    0.4019 H   0  0  0  0  0  0  0  0  0  0  0  0
   -4.4953    3.8717   -1.4705 H   0  0  0  0  0  0  0  0  0  0  0  0
   -2.0488    3.9227   -1.4868 H   0  0  0  0  0  0  0  0  0  0  0  0
    0.1181    2.7356   -1.4628 H   0  0  0  0  0  0  0  0  0  0  0  0
    2.2660    1.5566   -1.4380 H   0  0  0  0  0  0  0  0  0  0  0  0
    4.4178    0.3777   -1.4196 H   0  0  0  0  0  0  0  0  0  0  0  0
    6.2570   -0.5118    0.4129 H   0  0  0  0  0  0  0  0  0  0  0  0
    8.3870    0.2410    1.4263 H   0  0  0  0  0  0  0  0  0  0  0  0
   12.4021    1.6607    3.3662 H   0  0  0  0  0  0  0  0  0  0  0  0
   14.5368    2.4208    4.4069 H   0  0  0  0  0  0  0  0  0  0  0  0
   17.0013    2.4675    4.4094 H   0  0  0  0  0  0  0  0  0  0  0  0
   18.2745    1.2711    2.6487 H   0  0  0  0  0  0  0  0  0  0  0  0
   17.0838    0.0274    0.8849 H   0  0  0  0  0  0  0  0  0  0  0  0
   14.9393   -0.7235   -0.1423 H   0  0  0  0  0  0  0  0  0  0  0  0
   10.9244   -2.1415   -2.0819 H   0  0  0  0  0  0  0  0  0  0  0  0
    8.7898   -2.9013   -3.1201 H   0  0  0  0  0  0  0  0  0  0  0  0
    6.3411   -2.9500   -3.1322 H   0  0  0  0  0  0  0  0  0  0  0  0
    4.4950   -3.9228   -1.3037 H   0  0  0  0  0  0  0  0  0  0  0  0
    2.0491   -3.9762   -1.3058 H   0  0  0  0  0  0  0  0  0  0  0  0
   -0.1193   -2.7908   -1.3305 H   0  0  0  0  0  0  0  0  0  0  0  0
   -2.2702   -1.6099   -1.3508 H   0  0  0  0  0  0  0  0  0  0  0  0
   -4.4213   -0.4298   -1.3797 H   0  0  0  0  0  0  0  0  0  0  0  0
   -6.3506    2.8332   -3.2310 H   0  0  0  0  0  0  0  0  0  0  0  0
   -8.7983    2.7854   -3.2112 H   0  0  0  0  0  0  0  0  0  0  0  0
  -10.9325    2.0627   -2.1406 H   0  0  0  0  0  0  0  0  0  0  0  0
  -14.9429    0.7100   -0.1390 H   0  0  0  0  0  0  0  0  0  0  0  0
  -17.0831   -0.0057    0.9211 H   0  0  0  0  0  0  0  0  0  0  0  0
  1  2  4  0
  2  3  4  0
  3  4  4  0
  4  5  4  0
  5  6  4  0
  6  7  4  0
  7  8  4  0
  8  9  4  0
  9 10  4  0
 10 11  4  0
 11 12  4  0
 12 13  1  0
 13 14  4  0
 14 15  4  0
 15 16  4  0
 16 17  4  0
 17 18  4  0
 18 19  4  0
 19 20  4  0
 20 21  4  0
 21 22  4  0
 22 23  1  0
 23 24  4  0
 24 25  4  0
 25 26  4  0
 26 27  4  0
 27 28  4  0
 28 29  4  0
 29 30  4  0
 30 31  4  0
 31 32  4  0
 32 33  4  0
 33 34  4  0
 34 35  4  0
 35 36  4  0
 36 37  4  0
 37 38  4  0
 38 39  4  0
 39 40  4  0
 40 41  4  0
 41 42  4  0
 42 43  4  0
 43 44  4  0
 22 45  4  0
 45 46  4  0
 46 47  4  0
 47 48  4  0
 48 49  4  0
 49 50  4  0
 50 51  4  0
 51 52  4  0
 12 53  4  0
 53 54  4  0
 54 55  4  0
 55 56  4  0
 56 57  4  0
 57 58  4  0
 58 59  4  0
 59 60  4  0
 60 61  4  0
 61 62  4  0
 62  1  4  0
 61  4  4  0
 59  6  4  0
 57  8  4  0
 55 10  4  0
 52 13  4  0
 51 16  4  0
 49 18  4  0
 47 20  4  0
 44 23  4  0
 42 25  4  0
 40 27  4  0
 38 29  4  0
 36 31  4  0
  1 63  1  0
  2 64  1  0
  3 65  1  0
  5 66  1  0
  9 67  1  0
 11 68  1  0
 14 69  1  0
 15 70  1  0
 17 71  1  0
 19 72  1  0
 21 73  1  0
 24 74  1  0
 26 75  1  0
 30 76  1  0
 32 77  1  0
 33 78  1  0
 34 79  1  0
 35 80  1  0
 37 81  1  0
 41 82  1  0
 43 83  1  0
 44 84  1  0
 45 85  1  0
 46 86  1  0
 48 87  1  0
 50 88  1  0
 52 89  1  0
 53 90  1  0
 54 91  1  0
 56 92  1  0
 60 93  1  0
 62 94  1  0
M  END
