
     RDKit          3D

 94107  0  0  0  0  0  0  0  0999 V2000
   13.6576   -2.9301   -2.0703 C   0  0  0  0  0  0  0  0  0  0  0  0
   13.4198   -1.7110   -1.4339 C   0  0  0  0  0  0  0  0  0  0  0  0
   12.1250   -1.3616   -1.0161 C   0  0  0  0  0  0  0  0  0  0  0  0
   11.8609   -0.1419   -0.3745 C   0  0  0  0  0  0  0  0  0  0  0  0
   10.5811    0.2053    0.0393 C   0  0  0  0  0  0  0  0  0  0  0  0
   10.3775    1.3867    0.6506 N   0  0  0  0  0  0  0  0  0  0  0  0
    9.1212    1.6800    1.0339 C   0  0  0  0  0  0  0  0  0  0  0  0
    8.8613    2.8864    1.6680 C   0  0  0  0  0  0  0  0  0  0  0  0
    7.5712    3.2443    2.0898 C   0  0  0  0  0  0  0  0  0  0  0  0
    7.3492    4.4742    2.7269 C   0  0  0  0  0  0  0  0  0  0  0  0
    6.0743    4.8393    3.1492 C   0  0  0  0  0  0  0  0  0  0  0  0
    5.0038    3.9762    2.9398 C   0  0  0  0  0  0  0  0  0  0  0  0
    5.1891    2.7348    2.3050 C   0  0  0  0  0  0  0  0  0  0  0  0
    4.0162    1.8675    2.1164 C   0  0  0  0  0  0  0  0  0  0  0  0
    3.6917    0.8888    3.0631 C   0  0  0  0  0  0  0  0  0  0  0  0
    2.5806    0.0621    2.8796 C   0  0  0  0  0  0  0  0  0  0  0  0
    1.7651    0.1972    1.7457 C   0  0  0  0  0  0  0  0  0  0  0  0
    0.6455   -0.6273    1.5462 C   0  0  0  0  0  0  0  0  0  0  0  0
   -0.1716   -0.4921    0.4109 C   0  0  0  0  0  0  0  0  0  0  0  0
   -1.2918   -1.3171    0.2115 C   0  0  0  0  0  0  0  0  0  0  0  0
   -2.1094   -1.1818   -0.9227 C   0  0  0  0  0  0  0  0  0  0  0  0
   -3.2311   -2.0059   -1.1213 C   0  0  0  0  0  0  0  0  0  0  0  0
   -4.0502   -1.8653   -2.2525 C   0  0  0  0  0  0  0  0  0  0  0  0
   -5.2256   -2.7291   -2.4400 C   0  0  0  0  0  0  0  0  0  0  0  0
   -6.5175   -2.3709   -1.9570 C   0  0  0  0  0  0  0  0  0  0  0  0
   -6.7886   -1.1711   -1.2596 C   0  0  0  0  0  0  0  0  0  0  0  0
   -8.0562   -0.8393   -0.7977 C   0  0  0  0  0  0  0  0  0  0  0  0
   -8.2438    0.3202   -0.1411 N   0  0  0  0  0  0  0  0  0  0  0  0
   -9.4878    0.5993    0.2874 C   0  0  0  0  0  0  0  0  0  0  0  0
   -9.7269    1.7849    0.9700 C   0  0  0  0  0  0  0  0  0  0  0  0
  -11.0054    2.1231    1.4380 C   0  0  0  0  0  0  0  0  0  0  0  0
  -11.2445    3.3226    2.1283 C   0  0  0  0  0  0  0  0  0  0  0  0
  -12.5251    3.6381    2.5846 C   0  0  0  0  0  0  0  0  0  0  0  0
  -13.5803    2.7597    2.3567 C   0  0  0  0  0  0  0  0  0  0  0  0
  -13.3570    1.5642    1.6722 C   0  0  0  0  0  0  0  0  0  0  0  0
  -12.0734    1.2339    1.2073 C   0  0  0  0  0  0  0  0  0  0  0  0
  -11.8244    0.0379    0.5169 C   0  0  0  0  0  0  0  0  0  0  0  0
  -10.5560   -0.2910    0.0564 C   0  0  0  0  0  0  0  0  0  0  0  0
  -10.3679   -1.4503   -0.6002 N   0  0  0  0  0  0  0  0  0  0  0  0
   -9.1224   -1.7274   -1.0277 C   0  0  0  0  0  0  0  0  0  0  0  0
   -8.8785   -2.9110   -1.7092 C   0  0  0  0  0  0  0  0  0  0  0  0
   -7.6000   -3.2513   -2.1781 C   0  0  0  0  0  0  0  0  0  0  0  0
   -7.3936   -4.4580   -2.8632 C   0  0  0  0  0  0  0  0  0  0  0  0
   -6.1303   -4.8050   -3.3327 C   0  0  0  0  0  0  0  0  0  0  0  0
   -5.0558   -3.9470   -3.1226 C   0  0  0  0  0  0  0  0  0  0  0  0
   -3.7278   -0.8841   -3.1973 C   0  0  0  0  0  0  0  0  0  0  0  0
   -2.6166   -0.0579   -3.0135 C   0  0  0  0  0  0  0  0  0  0  0  0
   -1.7991   -0.1957   -1.8814 C   0  0  0  0  0  0  0  0  0  0  0  0
   -0.6794    0.6287   -1.6820 C   0  0  0  0  0  0  0  0  0  0  0  0
    0.1387    0.4923   -0.5478 C   0  0  0  0  0  0  0  0  0  0  0  0
    1.2592    1.3167   -0.3488 C   0  0  0  0  0  0  0  0  0  0  0  0
    2.0768    1.1817    0.7856 C   0  0  0  0  0  0  0  0  0  0  0  0
    3.1988    2.0054    0.9836 C   0  0  0  0  0  0  0  0  0  0  0  0
    6.4928    2.3584    1.8696 C   0  0  0  0  0  0  0  0  0  0  0  0
    6.7800    1.1358    1.2199 C   0  0  0  0  0  0  0  0  0  0  0  0
    8.0593    0.7865    0.8049 C   0  0  0  0  0  0  0  0  0  0  0  0
    8.2622   -0.3949    0.1937 N   0  0  0  0  0  0  0  0  0  0  0  0
    9.5169   -0.6904   -0.1904 C   0  0  0  0  0  0  0  0  0  0  0  0
    9.7710   -1.8991   -0.8249 C   0  0  0  0  0  0  0  0  0  0  0  0
   11.0609   -2.2558   -1.2453 C   0  0  0  0  0  0  0  0  0  0  0  0
   11.3145   -3.4790   -1.8868 C   0  0  0  0  0  0  0  0  0  0  0  0
   12.6059   -3.8133   -2.2966 C   0  0  0  0  0  0  0  0  0  0  0  0
   14.6641   -3.1892   -2.3891 H   0  0  0  0  0  0  0  0  0  0  0  0
   14.2547   -1.0338   -1.2659 H   0  0  0  0  0  0  0  0  0  0  0  0
   12.6683    0.5629   -0.1880 H   0  0  0  0  0  0  0  0  0  0  0  0
    9.6975    3.5627    1.8344 H   0  0  0  0  0  0  0  0  0  0  0  0
    8.1743    5.1628    2.9004 H   0  0  0  0  0  0  0  0  0  0  0  0
    5.9153    5.7950    3.6419 H   0  0  0  0  0  0  0  0  0  0  0  0
    4.0111    4.2716    3.2760 H   0  0  0  0  0  0  0  0  0  0  0  0
    4.3087    0.7620    3.9506 H   0  0  0  0  0  0  0  0  0  0  0  0
    2.3584   -0.6909    3.6327 H   0  0  0  0  0  0  0  0  0  0  0  0
    0.4064   -1.3878    2.2873 H   0  0  0  0  0  0  0  0  0  0  0  0
   -1.5328   -2.0770    0.9530 H   0  0  0  0  0  0  0  0  0  0  0  0
   -3.4783   -2.7674   -0.3830 H   0  0  0  0  0  0  0  0  0  0  0  0
   -5.9884   -0.4594   -1.0627 H   0  0  0  0  0  0  0  0  0  0  0  0
   -8.8882    2.4573    1.1374 H   0  0  0  0  0  0  0  0  0  0  0  0
  -10.4320    4.0216    2.3158 H   0  0  0  0  0  0  0  0  0  0  0  0
  -12.6976    4.5697    3.1177 H   0  0  0  0  0  0  0  0  0  0  0  0
  -14.5784    3.0042    2.7116 H   0  0  0  0  0  0  0  0  0  0  0  0
  -14.1944    0.8902    1.5036 H   0  0  0  0  0  0  0  0  0  0  0  0
  -12.6353   -0.6625    0.3284 H   0  0  0  0  0  0  0  0  0  0  0  0
   -9.7181   -3.5831   -1.8756 H   0  0  0  0  0  0  0  0  0  0  0  0
   -8.2221   -5.1423   -3.0378 H   0  0  0  0  0  0  0  0  0  0  0  0
   -5.9832   -5.7429   -3.8622 H   0  0  0  0  0  0  0  0  0  0  0  0
   -4.0720   -4.2284   -3.4951 H   0  0  0  0  0  0  0  0  0  0  0  0
   -4.3479   -0.7540   -4.0822 H   0  0  0  0  0  0  0  0  0  0  0  0
   -2.3964    0.6983   -3.7636 H   0  0  0  0  0  0  0  0  0  0  0  0
   -0.4441    1.3916   -2.4221 H   0  0  0  0  0  0  0  0  0  0  0  0
    1.4997    2.0763   -1.0906 H   0  0  0  0  0  0  0  0  0  0  0  0
    3.4471    2.7656    0.2442 H   0  0  0  0  0  0  0  0  0  0  0  0
    5.9836    0.4198    1.0236 H   0  0  0  0  0  0  0  0  0  0  0  0
    8.9352   -2.5751   -0.9923 H   0  0  0  0  0  0  0  0  0  0  0  0
   10.5047   -4.1818   -2.0723 H   0  0  0  0  0  0  0  0  0  0  0  0
   12.7898   -4.7630   -2.7925 H   0  0  0  0  0  0  0  0  0  0  0  0
  1  2  4  0
  2  3  4  0
  3  4  4  0
  4  5  4  0
  5  6  4  0
  6  7  4  0
  7  8  4  0
  8  9  4  0
  9 10  4  0
 10 11  4  0
 11 12  4  0
 12 13  4  0
 13 14  1  0
 14 15  4  0
 15 16  4  0
 16 17  4  0
 17 18  4  0
 18 19  4  0
 19 20  4  0
 20 21  4  0
 21 22  4  0
 22 23  4  0
 23 24  1  0
 24 25  4  0
 25 26  4  0
 26 27  4  0
 27 28  4  0
 28 29  4  0
 29 30  4  0
 30 31  4  0
 31 32  4  0
 32 33  4  0
 33 34  4  0
 34 35  4  0
 35 36  4  0
 36 37  4  0
 37 38  4  0
 38 39  4  0
 39 40  4  0
 40 41  4  0
 41 42  4  0
 42 43  4  0
 43 44  4  0
 44 45  4  0
 23 46  4  0
 46 47  4  0
 47 48  4  0
 48 49  4  0
 49 50  4  0
 50 51  4  0
 51 52  4  0
 52 53  4  0
 13 54  4  0
 54 55  4  0
 55 56  4  0
 56 57  4  0
 57 58  4  0
 58 59  4  0
 59 60  4  0
 60 61  4  0
 61 62  4  0
 62  1  4  0
 60  3  4  0
 58  5  4  0
 56  7  4  0
 54  9  4  0
 53 14  4  0
 52 17  4  0
 50 19  4  0
 48 21  4  0
 45 24  4  0
 42 25  4  0
 40 27  4  0
 38 29  4  0
 36 31  4  0
  1 63  1  0
  2 64  1  0
  4 65  1  0
  8 66  1  0
 10 67  1  0
 11 68  1  0
 12 69  1  0
 15 70  1  0
 16 71  1  0
 18 72  1  0
 20 73  1  0
 22 74  1  0
 26 75  1  0
 30 76  1  0
 32 77  1  0
 33 78  1  0
 34 79  1  0
 35 80  1  0
 37 81  1  0
 41 82  1  0
 43 83  1  0
 44 84  1  0
 45 85  1  0
 46 86  1  0
 47 87  1  0
 49 88  1  0
 51 89  1  0
 53 90  1  0
 55 91  1  0
 59 92  1  0
 61 93  1  0
 62 94  1  0
M  END
