
     RDKit          3D

 96107  0  0  0  0  0  0  0  0999 V2000
   14.3240   -2.0821    0.8863 C   0  0  0  0  0  0  0  0  0  0  0  0
   14.2002   -0.6803    0.7503 C   0  0  0  0  0  0  0  0  0  0  0  0
   12.8632   -0.3123    0.6169 C   0  0  0  0  0  0  0  0  0  0  0  0
   12.3482    0.9512    0.4353 C   0  0  0  0  0  0  0  0  0  0  0  0
   12.8758    2.3082    0.3639 C   0  0  0  0  0  0  0  0  0  0  0  0
   12.3406    3.2304   -0.5474 C   0  0  0  0  0  0  0  0  0  0  0  0
   12.8424    4.5320   -0.6266 C   0  0  0  0  0  0  0  0  0  0  0  0
   13.8833    4.9293    0.2093 C   0  0  0  0  0  0  0  0  0  0  0  0
   14.4190    4.0280    1.1267 C   0  0  0  0  0  0  0  0  0  0  0  0
   13.9165    2.7258    1.2047 C   0  0  0  0  0  0  0  0  0  0  0  0
   10.9824    0.8499    0.2964 O   0  0  0  0  0  0  0  0  0  0  0  0
   10.6195   -0.4724    0.4194 C   0  0  0  0  0  0  0  0  0  0  0  0
    9.1872   -0.7276    0.3309 C   0  0  0  0  0  0  0  0  0  0  0  0
    8.5701   -1.6856    1.1428 C   0  0  0  0  0  0  0  0  0  0  0  0
    7.1936   -1.9261    1.0478 C   0  0  0  0  0  0  0  0  0  0  0  0
    6.3938   -1.2113    0.1434 C   0  0  0  0  0  0  0  0  0  0  0  0
    4.9479   -1.4636    0.0460 C   0  0  0  0  0  0  0  0  0  0  0  0
    4.4561   -2.7501   -0.2114 C   0  0  0  0  0  0  0  0  0  0  0  0
    3.0822   -2.9895   -0.3062 C   0  0  0  0  0  0  0  0  0  0  0  0
    2.1600   -1.9461   -0.1437 C   0  0  0  0  0  0  0  0  0  0  0  0
    0.7767   -2.1705   -0.2357 C   0  0  0  0  0  0  0  0  0  0  0  0
   -0.1471   -1.1248   -0.0718 C   0  0  0  0  0  0  0  0  0  0  0  0
   -1.5309   -1.3494   -0.1647 C   0  0  0  0  0  0  0  0  0  0  0  0
   -2.4561   -0.3049   -0.0018 C   0  0  0  0  0  0  0  0  0  0  0  0
   -3.8419   -0.5292   -0.0969 C   0  0  0  0  0  0  0  0  0  0  0  0
   -4.7729    0.5110    0.0662 C   0  0  0  0  0  0  0  0  0  0  0  0
   -6.2187    0.2579   -0.0410 C   0  0  0  0  0  0  0  0  0  0  0  0
   -6.7630   -0.3557   -1.1796 C   0  0  0  0  0  0  0  0  0  0  0  0
   -8.1387   -0.5960   -1.2851 C   0  0  0  0  0  0  0  0  0  0  0  0
   -9.0094   -0.2336   -0.2518 C   0  0  0  0  0  0  0  0  0  0  0  0
  -10.4423   -0.4800   -0.3503 C   0  0  0  0  0  0  0  0  0  0  0  0
  -11.2543   -1.4781   -0.8390 C   0  0  0  0  0  0  0  0  0  0  0  0
  -10.8729   -2.6899   -1.4105 C   0  0  0  0  0  0  0  0  0  0  0  0
  -12.0063   -3.4394   -1.8013 C   0  0  0  0  0  0  0  0  0  0  0  0
  -13.3649   -3.0011   -1.6273 C   0  0  0  0  0  0  0  0  0  0  0  0
  -13.7339   -1.7715   -1.0349 C   0  0  0  0  0  0  0  0  0  0  0  0
  -12.6063   -1.0514   -0.6467 C   0  0  0  0  0  0  0  0  0  0  0  0
  -12.5583    0.1779   -0.0293 C   0  0  0  0  0  0  0  0  0  0  0  0
  -13.5223    1.1475    0.4756 C   0  0  0  0  0  0  0  0  0  0  0  0
  -13.2892    2.5226    0.3257 C   0  0  0  0  0  0  0  0  0  0  0  0
  -14.2081    3.4605    0.8033 C   0  0  0  0  0  0  0  0  0  0  0  0
  -15.3699    3.0341    1.4424 C   0  0  0  0  0  0  0  0  0  0  0  0
  -15.6109    1.6719    1.6080 C   0  0  0  0  0  0  0  0  0  0  0  0
  -14.6912    0.7344    1.1291 C   0  0  0  0  0  0  0  0  0  0  0  0
  -11.2385    0.5267    0.1467 O   0  0  0  0  0  0  0  0  0  0  0  0
   -8.4730    0.3876    0.8828 C   0  0  0  0  0  0  0  0  0  0  0  0
   -7.0977    0.6277    0.9877 C   0  0  0  0  0  0  0  0  0  0  0  0
   -4.2822    1.7966    0.3315 C   0  0  0  0  0  0  0  0  0  0  0  0
   -2.9084    2.0375    0.4284 C   0  0  0  0  0  0  0  0  0  0  0  0
   -1.9843    0.9960    0.2634 C   0  0  0  0  0  0  0  0  0  0  0  0
   -0.6008    1.2211    0.3565 C   0  0  0  0  0  0  0  0  0  0  0  0
    0.3240    0.1762    0.1914 C   0  0  0  0  0  0  0  0  0  0  0  0
    1.7082    0.4001    0.2831 C   0  0  0  0  0  0  0  0  0  0  0  0
    2.6329   -0.6447    0.1177 C   0  0  0  0  0  0  0  0  0  0  0  0
    4.0191   -0.4214    0.2082 C   0  0  0  0  0  0  0  0  0  0  0  0
    7.0154   -0.2450   -0.6610 C   0  0  0  0  0  0  0  0  0  0  0  0
    8.3914   -0.0054   -0.5671 C   0  0  0  0  0  0  0  0  0  0  0  0
   11.7589   -1.2219    0.6062 C   0  0  0  0  0  0  0  0  0  0  0  0
   11.8634   -2.6059    0.7277 C   0  0  0  0  0  0  0  0  0  0  0  0
   13.2142   -2.9966    0.8754 C   0  0  0  0  0  0  0  0  0  0  0  0
   15.3252   -2.5013    0.9962 H   0  0  0  0  0  0  0  0  0  0  0  0
   15.0491   -0.0122    0.7363 H   0  0  0  0  0  0  0  0  0  0  0  0
   11.5275    2.9352   -1.2075 H   0  0  0  0  0  0  0  0  0  0  0  0
   12.4182    5.2336   -1.3401 H   0  0  0  0  0  0  0  0  0  0  0  0
   14.2724    5.9424    0.1501 H   0  0  0  0  0  0  0  0  0  0  0  0
   15.2237    4.3393    1.7878 H   0  0  0  0  0  0  0  0  0  0  0  0
   14.3350    2.0478    1.9444 H   0  0  0  0  0  0  0  0  0  0  0  0
    9.1463   -2.2423    1.8775 H   0  0  0  0  0  0  0  0  0  0  0  0
    6.7441   -2.6683    1.7048 H   0  0  0  0  0  0  0  0  0  0  0  0
    5.1447   -3.5806   -0.3538 H   0  0  0  0  0  0  0  0  0  0  0  0
    2.7397   -4.0012   -0.5114 H   0  0  0  0  0  0  0  0  0  0  0  0
    0.4123   -3.1761   -0.4381 H   0  0  0  0  0  0  0  0  0  0  0  0
   -1.8942   -2.3552   -0.3678 H   0  0  0  0  0  0  0  0  0  0  0  0
   -4.2055   -1.5373   -0.2911 H   0  0  0  0  0  0  0  0  0  0  0  0
   -6.1168   -0.6369   -2.0091 H   0  0  0  0  0  0  0  0  0  0  0  0
   -8.5202   -1.0485   -2.1970 H   0  0  0  0  0  0  0  0  0  0  0  0
   -9.8600   -3.0412   -1.5428 H   0  0  0  0  0  0  0  0  0  0  0  0
  -11.8433   -4.4130   -2.2658 H   0  0  0  0  0  0  0  0  0  0  0  0
  -14.1595   -3.6628   -1.9753 H   0  0  0  0  0  0  0  0  0  0  0  0
  -14.7610   -1.4566   -0.9209 H   0  0  0  0  0  0  0  0  0  0  0  0
  -12.3859    2.8712   -0.1713 H   0  0  0  0  0  0  0  0  0  0  0  0
  -14.0132    4.5222    0.6765 H   0  0  0  0  0  0  0  0  0  0  0  0
  -16.0839    3.7632    1.8163 H   0  0  0  0  0  0  0  0  0  0  0  0
  -16.5116    1.3373    2.1162 H   0  0  0  0  0  0  0  0  0  0  0  0
  -14.8890   -0.3221    1.2913 H   0  0  0  0  0  0  0  0  0  0  0  0
   -9.1256    0.6853    1.7017 H   0  0  0  0  0  0  0  0  0  0  0  0
   -6.7164    1.0999    1.8910 H   0  0  0  0  0  0  0  0  0  0  0  0
   -4.9712    2.6303    0.4530 H   0  0  0  0  0  0  0  0  0  0  0  0
   -2.5678    3.0503    0.6315 H   0  0  0  0  0  0  0  0  0  0  0  0
   -0.2384    2.2269    0.5610 H   0  0  0  0  0  0  0  0  0  0  0  0
    2.0722    1.4057    0.4869 H   0  0  0  0  0  0  0  0  0  0  0  0
    4.3851    0.5823    0.4210 H   0  0  0  0  0  0  0  0  0  0  0  0
    6.4320    0.3265   -1.3802 H   0  0  0  0  0  0  0  0  0  0  0  0
    8.8404    0.7500   -1.2090 H   0  0  0  0  0  0  0  0  0  0  0  0
   11.0464   -3.3119    0.6974 H   0  0  0  0  0  0  0  0  0  0  0  0
   13.4334   -4.0604    0.9778 H   0  0  0  0  0  0  0  0  0  0  0  0
  1  2  4  0
  2  3  4  0
  3  4  4  0
  4  5  1  0
  5  6  4  0
  6  7  4  0
  7  8  4  0
  8  9  4  0
  9 10  4  0
  4 11  4  0
 11 12  4  0
 12 13  1  0
 13 14  4  0
 14 15  4  0
 15 16  4  0
 16 17  1  0
 17 18  4  0
 18 19  4  0
 19 20  4  0
 20 21  4  0
 21 22  4  0
 22 23  4  0
 23 24  4  0
 24 25  4  0
 25 26  4  0
 26 27  1  0
 27 28  4  0
 28 29  4  0
 29 30  4  0
 30 31  1  0
 31 32  4  0
 32 33  4  0
 33 34  4  0
 34 35  4  0
 35 36  4  0
 36 37  4  0
 37 38  4  0
 38 39  1  0
 39 40  4  0
 40 41  4  0
 41 42  4  0
 42 43  4  0
 43 44  4  0
 38 45  4  0
 30 46  4  0
 46 47  4  0
 26 48  4  0
 48 49  4  0
 49 50  4  0
 50 51  4  0
 51 52  4  0
 52 53  4  0
 53 54  4  0
 54 55  4  0
 16 56  4  0
 56 57  4  0
 12 58  4  0
 58 59  4  0
 59 60  4  0
 60  1  4  0
 58  3  4  0
 10  5  4  0
 57 13  4  0
 55 17  4  0
 54 20  4  0
 52 22  4  0
 50 24  4  0
 47 27  4  0
 45 31  4  0
 37 32  4  0
 44 39  4  0
  1 61  1  0
  2 62  1  0
  6 63  1  0
  7 64  1  0
  8 65  1  0
  9 66  1  0
 10 67  1  0
 14 68  1  0
 15 69  1  0
 18 70  1  0
 19 71  1  0
 21 72  1  0
 23 73  1  0
 25 74  1  0
 28 75  1  0
 29 76  1  0
 33 77  1  0
 34 78  1  0
 35 79  1  0
 36 80  1  0
 40 81  1  0
 41 82  1  0
 42 83  1  0
 43 84  1  0
 44 85  1  0
 46 86  1  0
 47 87  1  0
 48 88  1  0
 49 89  1  0
 51 90  1  0
 53 91  1  0
 55 92  1  0
 56 93  1  0
 57 94  1  0
 59 95  1  0
 60 96  1  0
M  END
