
     RDKit          3D

 96107  0  0  0  0  0  0  0  0999 V2000
  -12.6380    1.0965    2.4213 C   0  0  0  0  0  0  0  0  0  0  0  0
  -12.0518    0.7650    1.1779 C   0  0  0  0  0  0  0  0  0  0  0  0
  -10.7488    0.3057    1.3538 C   0  0  0  0  0  0  0  0  0  0  0  0
   -9.8579   -0.1034    0.3877 C   0  0  0  0  0  0  0  0  0  0  0  0
   -9.8453   -0.1984   -1.0658 C   0  0  0  0  0  0  0  0  0  0  0  0
   -9.2567   -1.3033   -1.6980 C   0  0  0  0  0  0  0  0  0  0  0  0
   -9.2430   -1.4066   -3.0911 C   0  0  0  0  0  0  0  0  0  0  0  0
   -9.8141   -0.4022   -3.8691 C   0  0  0  0  0  0  0  0  0  0  0  0
  -10.3941    0.7063   -3.2556 C   0  0  0  0  0  0  0  0  0  0  0  0
  -10.4082    0.8081   -1.8617 C   0  0  0  0  0  0  0  0  0  0  0  0
   -8.6936   -0.5007    1.0054 O   0  0  0  0  0  0  0  0  0  0  0  0
   -8.8378   -0.3410    2.3643 C   0  0  0  0  0  0  0  0  0  0  0  0
   -7.6848   -0.7457    3.1561 C   0  0  0  0  0  0  0  0  0  0  0  0
   -7.8446   -1.4759    4.3388 C   0  0  0  0  0  0  0  0  0  0  0  0
   -6.7335   -1.8571    5.0904 C   0  0  0  0  0  0  0  0  0  0  0  0
   -5.4500   -1.5105    4.6657 C   0  0  0  0  0  0  0  0  0  0  0  0
   -5.2525   -0.7832    3.4817 C   0  0  0  0  0  0  0  0  0  0  0  0
   -3.8984   -0.4193    3.0331 C   0  0  0  0  0  0  0  0  0  0  0  0
   -3.0125    0.2552    3.8847 C   0  0  0  0  0  0  0  0  0  0  0  0
   -1.7257    0.5989    3.4604 C   0  0  0  0  0  0  0  0  0  0  0  0
   -1.2879    0.2762    2.1685 C   0  0  0  0  0  0  0  0  0  0  0  0
    0.0021    0.6122    1.7271 C   0  0  0  0  0  0  0  0  0  0  0  0
    0.4406    0.2866    0.4329 C   0  0  0  0  0  0  0  0  0  0  0  0
    1.7321    0.6206   -0.0079 C   0  0  0  0  0  0  0  0  0  0  0  0
    2.1728    0.2939   -1.3009 C   0  0  0  0  0  0  0  0  0  0  0  0
    3.4666    0.6270   -1.7415 C   0  0  0  0  0  0  0  0  0  0  0  0
    3.9124    0.3065   -3.0352 C   0  0  0  0  0  0  0  0  0  0  0  0
    5.2683    0.6673   -3.4791 C   0  0  0  0  0  0  0  0  0  0  0  0
    5.4694    1.4265   -4.6416 C   0  0  0  0  0  0  0  0  0  0  0  0
    6.7549    1.7791   -5.0544 C   0  0  0  0  0  0  0  0  0  0  0  0
    7.8638    1.3721   -4.3123 C   0  0  0  0  0  0  0  0  0  0  0  0
    7.7019    0.6050   -3.1533 C   0  0  0  0  0  0  0  0  0  0  0  0
    8.8530    0.1751   -2.3690 C   0  0  0  0  0  0  0  0  0  0  0  0
   10.1320   -0.2642   -2.6265 C   0  0  0  0  0  0  0  0  0  0  0  0
   10.7267   -0.4928   -3.8655 C   0  0  0  0  0  0  0  0  0  0  0  0
   12.0486   -0.9696   -3.7078 C   0  0  0  0  0  0  0  0  0  0  0  0
   12.6806   -1.1954   -2.4359 C   0  0  0  0  0  0  0  0  0  0  0  0
   12.0575   -0.9685   -1.1873 C   0  0  0  0  0  0  0  0  0  0  0  0
   10.7611   -0.4893   -1.3615 C   0  0  0  0  0  0  0  0  0  0  0  0
    9.8371   -0.1796   -0.3898 C   0  0  0  0  0  0  0  0  0  0  0  0
    9.8020   -0.1562    1.0666 C   0  0  0  0  0  0  0  0  0  0  0  0
    8.6566   -0.5805    1.7558 C   0  0  0  0  0  0  0  0  0  0  0  0
    8.6158   -0.5655    3.1522 C   0  0  0  0  0  0  0  0  0  0  0  0
    9.7190   -0.1196    3.8764 C   0  0  0  0  0  0  0  0  0  0  0  0
   10.8602    0.3145    3.2057 C   0  0  0  0  0  0  0  0  0  0  0  0
   10.9006    0.2977    1.8087 C   0  0  0  0  0  0  0  0  0  0  0  0
    8.6690    0.2080   -1.0052 O   0  0  0  0  0  0  0  0  0  0  0  0
    6.4002    0.2667   -2.7468 C   0  0  0  0  0  0  0  0  0  0  0  0
    3.0266   -0.3645   -3.8890 C   0  0  0  0  0  0  0  0  0  0  0  0
    1.7382   -0.7052   -3.4664 C   0  0  0  0  0  0  0  0  0  0  0  0
    1.2983   -0.3814   -2.1753 C   0  0  0  0  0  0  0  0  0  0  0  0
    0.0068   -0.7151   -1.7354 C   0  0  0  0  0  0  0  0  0  0  0  0
   -0.4327   -0.3896   -0.4412 C   0  0  0  0  0  0  0  0  0  0  0  0
   -1.7240   -0.7240    0.0004 C   0  0  0  0  0  0  0  0  0  0  0  0
   -2.1626   -0.4001    1.2951 C   0  0  0  0  0  0  0  0  0  0  0  0
   -3.4543   -0.7376    1.7384 C   0  0  0  0  0  0  0  0  0  0  0  0
   -6.3864   -0.4131    2.7368 C   0  0  0  0  0  0  0  0  0  0  0  0
  -10.0928    0.1632    2.6164 C   0  0  0  0  0  0  0  0  0  0  0  0
  -10.6496    0.4931    3.8495 C   0  0  0  0  0  0  0  0  0  0  0  0
  -11.9704    0.9716    3.6896 C   0  0  0  0  0  0  0  0  0  0  0  0
  -13.6624    1.4721    2.4227 H   0  0  0  0  0  0  0  0  0  0  0  0
  -12.5725    0.8579    0.2359 H   0  0  0  0  0  0  0  0  0  0  0  0
   -8.8080   -2.0962   -1.1025 H   0  0  0  0  0  0  0  0  0  0  0  0
   -8.7853   -2.2707   -3.5651 H   0  0  0  0  0  0  0  0  0  0  0  0
   -9.8029   -0.4807   -4.9530 H   0  0  0  0  0  0  0  0  0  0  0  0
  -10.8313    1.4960   -3.8613 H   0  0  0  0  0  0  0  0  0  0  0  0
  -10.8469    1.6921   -1.4055 H   0  0  0  0  0  0  0  0  0  0  0  0
   -8.8350   -1.7728    4.6755 H   0  0  0  0  0  0  0  0  0  0  0  0
   -6.8659   -2.4324    6.0029 H   0  0  0  0  0  0  0  0  0  0  0  0
   -4.5952   -1.8287    5.2596 H   0  0  0  0  0  0  0  0  0  0  0  0
   -3.3254    0.5323    4.8894 H   0  0  0  0  0  0  0  0  0  0  0  0
   -1.0692    1.1249    4.1500 H   0  0  0  0  0  0  0  0  0  0  0  0
    0.6775    1.1350    2.4020 H   0  0  0  0  0  0  0  0  0  0  0  0
    2.4071    1.1433    0.6678 H   0  0  0  0  0  0  0  0  0  0  0  0
    4.1393    1.1573   -1.0683 H   0  0  0  0  0  0  0  0  0  0  0  0
    4.6166    1.7670   -5.2255 H   0  0  0  0  0  0  0  0  0  0  0  0
    6.8912    2.3817   -5.9487 H   0  0  0  0  0  0  0  0  0  0  0  0
    8.8539    1.6809   -4.6381 H   0  0  0  0  0  0  0  0  0  0  0  0
   10.2623   -0.3531   -4.8308 H   0  0  0  0  0  0  0  0  0  0  0  0
   12.6257   -1.1913   -4.6068 H   0  0  0  0  0  0  0  0  0  0  0  0
   13.7032   -1.5758   -2.4382 H   0  0  0  0  0  0  0  0  0  0  0  0
   12.5411   -1.1671   -0.2418 H   0  0  0  0  0  0  0  0  0  0  0  0
    7.7869   -0.9315    1.2037 H   0  0  0  0  0  0  0  0  0  0  0  0
    7.7222   -0.9010    3.6716 H   0  0  0  0  0  0  0  0  0  0  0  0
    9.6873   -0.1053    4.9627 H   0  0  0  0  0  0  0  0  0  0  0  0
   11.7183    0.6726    3.7687 H   0  0  0  0  0  0  0  0  0  0  0  0
   11.7934    0.6623    1.3067 H   0  0  0  0  0  0  0  0  0  0  0  0
    6.2670   -0.3331   -1.8469 H   0  0  0  0  0  0  0  0  0  0  0  0
    3.3402   -0.6405   -4.8937 H   0  0  0  0  0  0  0  0  0  0  0  0
    1.0821   -1.2300   -4.1572 H   0  0  0  0  0  0  0  0  0  0  0  0
   -0.6685   -1.2371   -2.4109 H   0  0  0  0  0  0  0  0  0  0  0  0
   -2.4004   -1.2454   -0.6748 H   0  0  0  0  0  0  0  0  0  0  0  0
   -4.1261   -1.2693    1.0655 H   0  0  0  0  0  0  0  0  0  0  0  0
   -6.2596    0.1612    1.8194 H   0  0  0  0  0  0  0  0  0  0  0  0
  -10.1615    0.4132    4.8100 H   0  0  0  0  0  0  0  0  0  0  0  0
  -12.5224    1.2653    4.5837 H   0  0  0  0  0  0  0  0  0  0  0  0
  1  2  4  0
  2  3  4  0
  3  4  4  0
  4  5  1  0
  5  6  4  0
  6  7  4  0
  7  8  4  0
  8  9  4  0
  9 10  4  0
  4 11  4  0
 11 12  4  0
 12 13  1  0
 13 14  4  0
 14 15  4  0
 15 16  4  0
 16 17  4  0
 17 18  1  0
 18 19  4  0
 19 20  4  0
 20 21  4  0
 21 22  4  0
 22 23  4  0
 23 24  4  0
 24 25  4  0
 25 26  4  0
 26 27  4  0
 27 28  1  0
 28 29  4  0
 29 30  4  0
 30 31  4  0
 31 32  4  0
 32 33  1  0
 33 34  4  0
 34 35  4  0
 35 36  4  0
 36 37  4  0
 37 38  4  0
 38 39  4  0
 39 40  4  0
 40 41  1  0
 41 42  4  0
 42 43  4  0
 43 44  4  0
 44 45  4  0
 45 46  4  0
 40 47  4  0
 32 48  4  0
 27 49  4  0
 49 50  4  0
 50 51  4  0
 51 52  4  0
 52 53  4  0
 53 54  4  0
 54 55  4  0
 55 56  4  0
 17 57  4  0
 12 58  4  0
 58 59  4  0
 59 60  4  0
 60  1  4  0
 58  3  4  0
 10  5  4  0
 57 13  4  0
 56 18  4  0
 55 21  4  0
 53 23  4  0
 51 25  4  0
 48 28  4  0
 47 33  4  0
 39 34  4  0
 46 41  4  0
  1 61  1  0
  2 62  1  0
  6 63  1  0
  7 64  1  0
  8 65  1  0
  9 66  1  0
 10 67  1  0
 14 68  1  0
 15 69  1  0
 16 70  1  0
 19 71  1  0
 20 72  1  0
 22 73  1  0
 24 74  1  0
 26 75  1  0
 29 76  1  0
 30 77  1  0
 31 78  1  0
 35 79  1  0
 36 80  1  0
 37 81  1  0
 38 82  1  0
 42 83  1  0
 43 84  1  0
 44 85  1  0
 45 86  1  0
 46 87  1  0
 48 88  1  0
 49 89  1  0
 50 90  1  0
 52 91  1  0
 54 92  1  0
 56 93  1  0
 57 94  1  0
 59 95  1  0
 60 96  1  0
M  END
