
     RDKit          3D

 96107  0  0  0  0  0  0  0  0999 V2000
   -7.4306   -3.4571   -2.0321 C   0  0  0  0  0  0  0  0  0  0  0  0
   -8.6505   -2.9005   -1.5958 C   0  0  0  0  0  0  0  0  0  0  0  0
   -8.4575   -1.6344   -1.0470 C   0  0  0  0  0  0  0  0  0  0  0  0
   -9.4233   -0.7976   -0.5364 C   0  0  0  0  0  0  0  0  0  0  0  0
  -10.8629   -0.8502   -0.3148 C   0  0  0  0  0  0  0  0  0  0  0  0
  -11.6576    0.2825   -0.5454 C   0  0  0  0  0  0  0  0  0  0  0  0
  -13.0384    0.2429   -0.3357 C   0  0  0  0  0  0  0  0  0  0  0  0
  -13.6408   -0.9297    0.1138 C   0  0  0  0  0  0  0  0  0  0  0  0
  -12.8637   -2.0600    0.3576 C   0  0  0  0  0  0  0  0  0  0  0  0
  -11.4826   -2.0197    0.1461 C   0  0  0  0  0  0  0  0  0  0  0  0
   -8.8195    0.3674   -0.1340 O   0  0  0  0  0  0  0  0  0  0  0  0
   -7.4665    0.2636   -0.3494 C   0  0  0  0  0  0  0  0  0  0  0  0
   -6.7135    1.4214    0.1063 C   0  0  0  0  0  0  0  0  0  0  0  0
   -5.6827    1.2860    1.0440 C   0  0  0  0  0  0  0  0  0  0  0  0
   -4.9582    2.4021    1.4682 C   0  0  0  0  0  0  0  0  0  0  0  0
   -5.2683    3.6659    0.9694 C   0  0  0  0  0  0  0  0  0  0  0  0
   -6.3046    3.8162    0.0498 C   0  0  0  0  0  0  0  0  0  0  0  0
   -7.0260    2.6992   -0.3773 C   0  0  0  0  0  0  0  0  0  0  0  0
   -7.1945   -0.9523   -0.9436 C   0  0  0  0  0  0  0  0  0  0  0  0
   -5.9725   -1.4883   -1.3913 C   0  0  0  0  0  0  0  0  0  0  0  0
   -4.6759   -0.8286   -1.3513 C   0  0  0  0  0  0  0  0  0  0  0  0
   -4.4134    0.3011   -2.1355 C   0  0  0  0  0  0  0  0  0  0  0  0
   -3.1680    0.9335   -2.0865 C   0  0  0  0  0  0  0  0  0  0  0  0
   -2.1480    0.4452   -1.2573 C   0  0  0  0  0  0  0  0  0  0  0  0
   -0.8938    1.0739   -1.1901 C   0  0  0  0  0  0  0  0  0  0  0  0
    0.1277    0.5841   -0.3589 C   0  0  0  0  0  0  0  0  0  0  0  0
    1.3825    1.2133   -0.2912 C   0  0  0  0  0  0  0  0  0  0  0  0
    2.4041    0.7237    0.5393 C   0  0  0  0  0  0  0  0  0  0  0  0
    3.6627    1.3479    0.6016 C   0  0  0  0  0  0  0  0  0  0  0  0
    4.6919    0.8479    1.4160 C   0  0  0  0  0  0  0  0  0  0  0  0
    5.9931    1.4991    1.4489 C   0  0  0  0  0  0  0  0  0  0  0  0
    6.2006    2.7953    1.9975 C   0  0  0  0  0  0  0  0  0  0  0  0
    7.4749    3.4509    2.0861 C   0  0  0  0  0  0  0  0  0  0  0  0
    8.6855    2.8870    1.6326 C   0  0  0  0  0  0  0  0  0  0  0  0
    8.4757    1.6263    1.0778 C   0  0  0  0  0  0  0  0  0  0  0  0
    9.4283    0.7832    0.5523 C   0  0  0  0  0  0  0  0  0  0  0  0
   10.8664    0.8224    0.3173 C   0  0  0  0  0  0  0  0  0  0  0  0
   11.4955    1.9903   -0.1349 C   0  0  0  0  0  0  0  0  0  0  0  0
   12.8753    2.0176   -0.3578 C   0  0  0  0  0  0  0  0  0  0  0  0
   13.6415    0.8755   -0.1348 C   0  0  0  0  0  0  0  0  0  0  0  0
   13.0295   -0.2955    0.3054 C   0  0  0  0  0  0  0  0  0  0  0  0
   11.6502   -0.3219    0.5269 C   0  0  0  0  0  0  0  0  0  0  0  0
    8.8090   -0.3742    0.1503 O   0  0  0  0  0  0  0  0  0  0  0  0
    7.4603   -0.2596    0.3830 C   0  0  0  0  0  0  0  0  0  0  0  0
    6.6911   -1.4103   -0.0619 C   0  0  0  0  0  0  0  0  0  0  0  0
    5.6610   -1.2683   -0.9994 C   0  0  0  0  0  0  0  0  0  0  0  0
    4.9135   -2.3761   -1.4048 C   0  0  0  0  0  0  0  0  0  0  0  0
    5.1996   -3.6379   -0.8870 C   0  0  0  0  0  0  0  0  0  0  0  0
    6.2375   -3.7953    0.0297 C   0  0  0  0  0  0  0  0  0  0  0  0
    6.9820   -2.6867    0.4381 C   0  0  0  0  0  0  0  0  0  0  0  0
    7.2057    0.9562    0.9845 C   0  0  0  0  0  0  0  0  0  0  0  0
    4.4274   -0.2800    2.2023 C   0  0  0  0  0  0  0  0  0  0  0  0
    3.1818   -0.9115    2.1530 C   0  0  0  0  0  0  0  0  0  0  0  0
    2.1634   -0.4232    1.3222 C   0  0  0  0  0  0  0  0  0  0  0  0
    0.9104   -1.0535    1.2531 C   0  0  0  0  0  0  0  0  0  0  0  0
   -0.1113   -0.5632    0.4228 C   0  0  0  0  0  0  0  0  0  0  0  0
   -1.3664   -1.1919    0.3556 C   0  0  0  0  0  0  0  0  0  0  0  0
   -2.3882   -0.7016   -0.4741 C   0  0  0  0  0  0  0  0  0  0  0  0
   -3.6462   -1.3270   -0.5365 C   0  0  0  0  0  0  0  0  0  0  0  0
   -6.1634   -2.7899   -1.9337 C   0  0  0  0  0  0  0  0  0  0  0  0
   -7.4480   -4.4498   -2.4837 H   0  0  0  0  0  0  0  0  0  0  0  0
   -9.5984   -3.4092   -1.7002 H   0  0  0  0  0  0  0  0  0  0  0  0
  -11.2008    1.2069   -0.8931 H   0  0  0  0  0  0  0  0  0  0  0  0
  -13.6399    1.1291   -0.5202 H   0  0  0  0  0  0  0  0  0  0  0  0
  -14.7143   -0.9598    0.2815 H   0  0  0  0  0  0  0  0  0  0  0  0
  -13.3301   -2.9721    0.7207 H   0  0  0  0  0  0  0  0  0  0  0  0
  -10.8939   -2.9063    0.3675 H   0  0  0  0  0  0  0  0  0  0  0  0
   -5.4335    0.3086    1.4494 H   0  0  0  0  0  0  0  0  0  0  0  0
   -4.1521    2.2818    2.1870 H   0  0  0  0  0  0  0  0  0  0  0  0
   -4.7051    4.5338    1.3016 H   0  0  0  0  0  0  0  0  0  0  0  0
   -6.5532    4.8018   -0.3342 H   0  0  0  0  0  0  0  0  0  0  0  0
   -7.8347    2.8271   -1.0933 H   0  0  0  0  0  0  0  0  0  0  0  0
   -5.1862    0.7069   -2.7855 H   0  0  0  0  0  0  0  0  0  0  0  0
   -3.0066    1.8175   -2.6992 H   0  0  0  0  0  0  0  0  0  0  0  0
   -0.7107    1.9605   -1.7945 H   0  0  0  0  0  0  0  0  0  0  0  0
    1.5676    2.0987   -0.8969 H   0  0  0  0  0  0  0  0  0  0  0  0
    3.8561    2.2283   -0.0095 H   0  0  0  0  0  0  0  0  0  0  0  0
    5.3370    3.3283    2.4008 H   0  0  0  0  0  0  0  0  0  0  0  0
    7.5060    4.4405    2.5439 H   0  0  0  0  0  0  0  0  0  0  0  0
    9.6386    3.3873    1.7301 H   0  0  0  0  0  0  0  0  0  0  0  0
   10.9153    2.8862   -0.3404 H   0  0  0  0  0  0  0  0  0  0  0  0
   13.3492    2.9288   -0.7133 H   0  0  0  0  0  0  0  0  0  0  0  0
   14.7137    0.8955   -0.3114 H   0  0  0  0  0  0  0  0  0  0  0  0
   13.6223   -1.1907    0.4738 H   0  0  0  0  0  0  0  0  0  0  0  0
   11.1861   -1.2454    0.8675 H   0  0  0  0  0  0  0  0  0  0  0  0
    5.4290   -0.2915   -1.4163 H   0  0  0  0  0  0  0  0  0  0  0  0
    4.1060   -2.2510   -2.1213 H   0  0  0  0  0  0  0  0  0  0  0  0
    4.6147   -4.4983   -1.2008 H   0  0  0  0  0  0  0  0  0  0  0  0
    6.4676   -4.7795    0.4283 H   0  0  0  0  0  0  0  0  0  0  0  0
    7.7896   -2.8194    1.1544 H   0  0  0  0  0  0  0  0  0  0  0  0
    5.2001   -0.6869    2.8516 H   0  0  0  0  0  0  0  0  0  0  0  0
    3.0191   -1.7955    2.7652 H   0  0  0  0  0  0  0  0  0  0  0  0
    0.7293   -1.9424    1.8548 H   0  0  0  0  0  0  0  0  0  0  0  0
   -1.5516   -2.0777    0.9607 H   0  0  0  0  0  0  0  0  0  0  0  0
   -3.8369   -2.2093    0.0728 H   0  0  0  0  0  0  0  0  0  0  0  0
   -5.2908   -3.3180   -2.3243 H   0  0  0  0  0  0  0  0  0  0  0  0
  1  2  4  0
  2  3  4  0
  3  4  4  0
  4  5  1  0
  5  6  4  0
  6  7  4  0
  7  8  4  0
  8  9  4  0
  9 10  4  0
  4 11  4  0
 11 12  4  0
 12 13  1  0
 13 14  4  0
 14 15  4  0
 15 16  4  0
 16 17  4  0
 17 18  4  0
 12 19  4  0
 19 20  4  0
 20 21  1  0
 21 22  4  0
 22 23  4  0
 23 24  4  0
 24 25  4  0
 25 26  4  0
 26 27  4  0
 27 28  4  0
 28 29  4  0
 29 30  4  0
 30 31  1  0
 31 32  4  0
 32 33  4  0
 33 34  4  0
 34 35  4  0
 35 36  4  0
 36 37  1  0
 37 38  4  0
 38 39  4  0
 39 40  4  0
 40 41  4  0
 41 42  4  0
 36 43  4  0
 43 44  4  0
 44 45  1  0
 45 46  4  0
 46 47  4  0
 47 48  4  0
 48 49  4  0
 49 50  4  0
 44 51  4  0
 30 52  4  0
 52 53  4  0
 53 54  4  0
 54 55  4  0
 55 56  4  0
 56 57  4  0
 57 58  4  0
 58 59  4  0
 20 60  4  0
 60  1  4  0
 19  3  4  0
 59 21  4  0
 10  5  4  0
 18 13  4  0
 58 24  4  0
 56 26  4  0
 54 28  4  0
 51 31  4  0
 51 35  4  0
 42 37  4  0
 50 45  4  0
  1 61  1  0
  2 62  1  0
  6 63  1  0
  7 64  1  0
  8 65  1  0
  9 66  1  0
 10 67  1  0
 14 68  1  0
 15 69  1  0
 16 70  1  0
 17 71  1  0
 18 72  1  0
 22 73  1  0
 23 74  1  0
 25 75  1  0
 27 76  1  0
 29 77  1  0
 32 78  1  0
 33 79  1  0
 34 80  1  0
 38 81  1  0
 39 82  1  0
 40 83  1  0
 41 84  1  0
 42 85  1  0
 46 86  1  0
 47 87  1  0
 48 88  1  0
 49 89  1  0
 50 90  1  0
 52 91  1  0
 53 92  1  0
 55 93  1  0
 57 94  1  0
 59 95  1  0
 60 96  1  0
M  END
