
     RDKit          3D

 90103  0  0  0  0  0  0  0  0999 V2000
   -8.4881    7.0484    0.5872 C   0  0  0  0  0  0  0  0  0  0  0  0
   -7.1188    7.0127    0.8152 C   0  0  0  0  0  0  0  0  0  0  0  0
   -6.4651    5.7816    0.8830 C   0  0  0  0  0  0  0  0  0  0  0  0
   -7.1562    4.5857    0.7270 C   0  0  0  0  0  0  0  0  0  0  0  0
   -6.4925    3.4174    0.7984 N   0  0  0  0  0  0  0  0  0  0  0  0
   -7.2044    2.2880    0.6421 C   0  0  0  0  0  0  0  0  0  0  0  0
   -6.5664    1.0604    0.7078 C   0  0  0  0  0  0  0  0  0  0  0  0
   -7.2556   -0.1310    0.5515 C   0  0  0  0  0  0  0  0  0  0  0  0
   -6.5938   -1.2967    0.6220 N   0  0  0  0  0  0  0  0  0  0  0  0
   -7.2868   -2.4507    0.4693 C   0  0  0  0  0  0  0  0  0  0  0  0
   -8.6816   -2.3958    0.2384 C   0  0  0  0  0  0  0  0  0  0  0  0
   -9.3450   -1.2278    0.1633 N   0  0  0  0  0  0  0  0  0  0  0  0
   -8.6399   -0.0959    0.3204 C   0  0  0  0  0  0  0  0  0  0  0  0
   -9.2800    1.1313    0.2549 C   0  0  0  0  0  0  0  0  0  0  0  0
   -8.5930    2.3243    0.4107 C   0  0  0  0  0  0  0  0  0  0  0  0
   -9.2587    3.4898    0.3381 N   0  0  0  0  0  0  0  0  0  0  0  0
   -8.5486    4.6221    0.4953 C   0  0  0  0  0  0  0  0  0  0  0  0
   -9.1907    5.8530    0.4293 C   0  0  0  0  0  0  0  0  0  0  0  0
   -9.4035   -3.5699    0.0843 C   0  0  0  0  0  0  0  0  0  0  0  0
   -8.7869   -4.8140    0.1521 C   0  0  0  0  0  0  0  0  0  0  0  0
   -7.4193   -4.8828    0.3802 C   0  0  0  0  0  0  0  0  0  0  0  0
   -6.6549   -3.7107    0.5416 C   0  0  0  0  0  0  0  0  0  0  0  0
   -5.2024   -3.8362    0.7837 C   0  0  0  0  0  0  0  0  0  0  0  0
   -4.7164   -4.5321    1.8997 C   0  0  0  0  0  0  0  0  0  0  0  0
   -3.3426   -4.6563    2.1270 C   0  0  0  0  0  0  0  0  0  0  0  0
   -2.4148   -4.0876    1.2424 C   0  0  0  0  0  0  0  0  0  0  0  0
   -1.0312   -4.1988    1.4584 C   0  0  0  0  0  0  0  0  0  0  0  0
   -0.1030   -3.6265    0.5724 C   0  0  0  0  0  0  0  0  0  0  0  0
    1.2810   -3.7376    0.7882 C   0  0  0  0  0  0  0  0  0  0  0  0
    2.2096   -3.1631   -0.0962 C   0  0  0  0  0  0  0  0  0  0  0  0
    3.5957   -3.2753    0.1182 C   0  0  0  0  0  0  0  0  0  0  0  0
    4.5314   -2.7061   -0.7648 C   0  0  0  0  0  0  0  0  0  0  0  0
    5.9835   -2.8725   -0.5394 C   0  0  0  0  0  0  0  0  0  0  0  0
    6.5057   -4.1802   -0.4682 C   0  0  0  0  0  0  0  0  0  0  0  0
    7.8605   -4.3969   -0.2599 C   0  0  0  0  0  0  0  0  0  0  0  0
    8.7083   -3.3048   -0.1212 C   0  0  0  0  0  0  0  0  0  0  0  0
    8.2302   -2.0048   -0.1880 C   0  0  0  0  0  0  0  0  0  0  0  0
    9.1134   -1.0010   -0.0446 N   0  0  0  0  0  0  0  0  0  0  0  0
    8.6482    0.2562   -0.1060 C   0  0  0  0  0  0  0  0  0  0  0  0
    9.5242    1.3201    0.0366 C   0  0  0  0  0  0  0  0  0  0  0  0
    9.0947    2.6357   -0.0213 C   0  0  0  0  0  0  0  0  0  0  0  0
    9.9857    3.6324    0.1214 N   0  0  0  0  0  0  0  0  0  0  0  0
    9.5231    4.8946    0.0579 C   0  0  0  0  0  0  0  0  0  0  0  0
   10.4046    5.9599    0.2002 C   0  0  0  0  0  0  0  0  0  0  0  0
    9.9622    7.2820    0.1402 C   0  0  0  0  0  0  0  0  0  0  0  0
    8.6141    7.5434   -0.0659 C   0  0  0  0  0  0  0  0  0  0  0  0
    7.7214    6.4803   -0.2101 C   0  0  0  0  0  0  0  0  0  0  0  0
    8.1527    5.1602   -0.1518 C   0  0  0  0  0  0  0  0  0  0  0  0
    7.2636    4.1599   -0.2951 N   0  0  0  0  0  0  0  0  0  0  0  0
    7.7277    2.8991   -0.2301 C   0  0  0  0  0  0  0  0  0  0  0  0
    6.8528    1.8324   -0.3710 C   0  0  0  0  0  0  0  0  0  0  0  0
    7.2844    0.5159   -0.3140 C   0  0  0  0  0  0  0  0  0  0  0  0
    6.4025   -0.4882   -0.4594 N   0  0  0  0  0  0  0  0  0  0  0  0
    6.8513   -1.7667   -0.4006 C   0  0  0  0  0  0  0  0  0  0  0  0
    4.0432   -2.0067   -1.8765 C   0  0  0  0  0  0  0  0  0  0  0  0
    2.6689   -1.8839   -2.1035 C   0  0  0  0  0  0  0  0  0  0  0  0
    1.7415   -2.4600   -1.2236 C   0  0  0  0  0  0  0  0  0  0  0  0
    0.3580   -2.3506   -1.4407 C   0  0  0  0  0  0  0  0  0  0  0  0
   -0.5701   -2.9250   -0.5560 C   0  0  0  0  0  0  0  0  0  0  0  0
   -1.9540   -2.8131   -0.7713 C   0  0  0  0  0  0  0  0  0  0  0  0
   -2.8824   -3.3859    0.1137 C   0  0  0  0  0  0  0  0  0  0  0  0
   -4.2675   -3.2714   -0.1007 C   0  0  0  0  0  0  0  0  0  0  0  0
   -9.0117    7.9994    0.5317 H   0  0  0  0  0  0  0  0  0  0  0  0
   -6.5578    7.9355    0.9403 H   0  0  0  0  0  0  0  0  0  0  0  0
   -5.3929    5.7505    1.0615 H   0  0  0  0  0  0  0  0  0  0  0  0
   -5.4946    1.0299    0.8881 H   0  0  0  0  0  0  0  0  0  0  0  0
  -10.3519    1.1588    0.0762 H   0  0  0  0  0  0  0  0  0  0  0  0
  -10.2631    5.8790    0.2507 H   0  0  0  0  0  0  0  0  0  0  0  0
  -10.4751   -3.5110   -0.0936 H   0  0  0  0  0  0  0  0  0  0  0  0
   -9.3708   -5.7217    0.0254 H   0  0  0  0  0  0  0  0  0  0  0  0
   -6.9380   -5.8586    0.4230 H   0  0  0  0  0  0  0  0  0  0  0  0
   -5.4085   -4.9734    2.6140 H   0  0  0  0  0  0  0  0  0  0  0  0
   -3.0036   -5.1975    3.0075 H   0  0  0  0  0  0  0  0  0  0  0  0
   -0.6708   -4.7378    2.3325 H   0  0  0  0  0  0  0  0  0  0  0  0
    1.6412   -4.2808    1.6602 H   0  0  0  0  0  0  0  0  0  0  0  0
    3.9536   -3.8119    0.9955 H   0  0  0  0  0  0  0  0  0  0  0  0
    5.8459   -5.0386   -0.5884 H   0  0  0  0  0  0  0  0  0  0  0  0
    8.2557   -5.4080   -0.2086 H   0  0  0  0  0  0  0  0  0  0  0  0
    9.7714   -3.4685    0.0420 H   0  0  0  0  0  0  0  0  0  0  0  0
   10.5797    1.1162    0.1980 H   0  0  0  0  0  0  0  0  0  0  0  0
   11.4597    5.7518    0.3617 H   0  0  0  0  0  0  0  0  0  0  0  0
   10.6698    8.0995    0.2544 H   0  0  0  0  0  0  0  0  0  0  0  0
    8.2539    8.5679   -0.1148 H   0  0  0  0  0  0  0  0  0  0  0  0
    6.6652    6.6825   -0.3712 H   0  0  0  0  0  0  0  0  0  0  0  0
    5.7963    2.0335   -0.5310 H   0  0  0  0  0  0  0  0  0  0  0  0
    4.7354   -1.5473   -2.5797 H   0  0  0  0  0  0  0  0  0  0  0  0
    2.3295   -1.3312   -2.9766 H   0  0  0  0  0  0  0  0  0  0  0  0
   -0.0034   -1.8073   -2.3121 H   0  0  0  0  0  0  0  0  0  0  0  0
   -2.3154   -2.2675   -1.6412 H   0  0  0  0  0  0  0  0  0  0  0  0
   -4.6293   -2.7238   -0.9701 H   0  0  0  0  0  0  0  0  0  0  0  0
  1  2  4  0
  2  3  4  0
  3  4  4  0
  4  5  4  0
  5  6  4  0
  6  7  4  0
  7  8  4  0
  8  9  4  0
  9 10  4  0
 10 11  4  0
 11 12  4  0
 12 13  4  0
 13 14  4  0
 14 15  4  0
 15 16  4  0
 16 17  4  0
 17 18  4  0
 11 19  4  0
 19 20  4  0
 20 21  4  0
 21 22  4  0
 22 23  1  0
 23 24  4  0
 24 25  4  0
 25 26  4  0
 26 27  4  0
 27 28  4  0
 28 29  4  0
 29 30  4  0
 30 31  4  0
 31 32  4  0
 32 33  1  0
 33 34  4  0
 34 35  4  0
 35 36  4  0
 36 37  4  0
 37 38  4  0
 38 39  4  0
 39 40  4  0
 40 41  4  0
 41 42  4  0
 42 43  4  0
 43 44  4  0
 44 45  4  0
 45 46  4  0
 46 47  4  0
 47 48  4  0
 48 49  4  0
 49 50  4  0
 50 51  4  0
 51 52  4  0
 52 53  4  0
 53 54  4  0
 32 55  4  0
 55 56  4  0
 56 57  4  0
 57 58  4  0
 58 59  4  0
 59 60  4  0
 60 61  4  0
 61 62  4  0
 18  1  4  0
 62 23  4  0
 17  4  4  0
 61 26  4  0
 15  6  4  0
 59 28  4  0
 13  8  4  0
 57 30  4  0
 22 10  4  0
 54 33  4  0
 54 37  4  0
 52 39  4  0
 50 41  4  0
 48 43  4  0
  1 63  1  0
  2 64  1  0
  3 65  1  0
  7 66  1  0
 14 67  1  0
 18 68  1  0
 19 69  1  0
 20 70  1  0
 21 71  1  0
 24 72  1  0
 25 73  1  0
 27 74  1  0
 29 75  1  0
 31 76  1  0
 34 77  1  0
 35 78  1  0
 36 79  1  0
 40 80  1  0
 44 81  1  0
 45 82  1  0
 46 83  1  0
 47 84  1  0
 51 85  1  0
 55 86  1  0
 56 87  1  0
 58 88  1  0
 60 89  1  0
 62 90  1  0
M  END
