
     RDKit          3D

 94107  0  0  0  0  0  0  0  0999 V2000
    8.9249    0.3611   -6.2805 C   0  0  0  0  0  0  0  0  0  0  0  0
    7.5979   -0.0500   -6.3277 C   0  0  0  0  0  0  0  0  0  0  0  0
    6.8672   -0.1801   -5.1427 C   0  0  0  0  0  0  0  0  0  0  0  0
    7.4302    0.0913   -3.9026 C   0  0  0  0  0  0  0  0  0  0  0  0
    6.6842   -0.0492   -2.7922 N   0  0  0  0  0  0  0  0  0  0  0  0
    7.2326    0.2150   -1.5938 C   0  0  0  0  0  0  0  0  0  0  0  0
    6.4710    0.0733   -0.4434 C   0  0  0  0  0  0  0  0  0  0  0  0
    6.9801    0.3327    0.8577 C   0  0  0  0  0  0  0  0  0  0  0  0
    8.3137    0.7529    0.9777 C   0  0  0  0  0  0  0  0  0  0  0  0
    9.0785    0.8959   -0.1690 C   0  0  0  0  0  0  0  0  0  0  0  0
    8.5603    0.6342   -1.4486 C   0  0  0  0  0  0  0  0  0  0  0  0
    9.3323    0.7783   -2.6074 C   0  0  0  0  0  0  0  0  0  0  0  0
    8.7741    0.5071   -3.8610 C   0  0  0  0  0  0  0  0  0  0  0  0
    9.5148    0.6400   -5.0496 C   0  0  0  0  0  0  0  0  0  0  0  0
    8.8937    1.0259    2.1524 N   0  0  0  0  0  0  0  0  0  0  0  0
    8.1896    0.8992    3.2850 C   0  0  0  0  0  0  0  0  0  0  0  0
    8.8289    1.1921    4.4829 C   0  0  0  0  0  0  0  0  0  0  0  0
    8.1795    1.0891    5.7143 C   0  0  0  0  0  0  0  0  0  0  0  0
    6.8553    0.6827    5.7560 C   0  0  0  0  0  0  0  0  0  0  0  0
    6.1935    0.3834    4.5661 C   0  0  0  0  0  0  0  0  0  0  0  0
    6.8448    0.4856    3.3091 C   0  0  0  0  0  0  0  0  0  0  0  0
    6.2282    0.1956    2.0591 C   0  0  0  0  0  0  0  0  0  0  0  0
    4.8200   -0.2482    2.0089 C   0  0  0  0  0  0  0  0  0  0  0  0
    4.4996   -1.6107    2.0535 C   0  0  0  0  0  0  0  0  0  0  0  0
    3.1684   -2.0302    2.0041 C   0  0  0  0  0  0  0  0  0  0  0  0
    2.1253   -1.0970    1.9104 C   0  0  0  0  0  0  0  0  0  0  0  0
    0.7826   -1.5050    1.8587 C   0  0  0  0  0  0  0  0  0  0  0  0
   -0.2631   -0.5720    1.7647 C   0  0  0  0  0  0  0  0  0  0  0  0
   -1.6058   -0.9817    1.7121 C   0  0  0  0  0  0  0  0  0  0  0  0
   -2.6520   -0.0502    1.6149 C   0  0  0  0  0  0  0  0  0  0  0  0
   -3.9945   -0.4611    1.5583 C   0  0  0  0  0  0  0  0  0  0  0  0
   -5.0394    0.4712    1.4560 C   0  0  0  0  0  0  0  0  0  0  0  0
   -6.4443    0.0216    1.3895 C   0  0  0  0  0  0  0  0  0  0  0  0
   -7.2078   -0.1245    2.5818 C   0  0  0  0  0  0  0  0  0  0  0  0
   -6.7123    0.1322    3.8871 C   0  0  0  0  0  0  0  0  0  0  0  0
   -7.5148   -0.0302    5.0154 C   0  0  0  0  0  0  0  0  0  0  0  0
   -8.8262   -0.4517    4.8622 C   0  0  0  0  0  0  0  0  0  0  0  0
   -9.3218   -0.7074    3.5828 C   0  0  0  0  0  0  0  0  0  0  0  0
   -8.5407   -0.5531    2.4448 C   0  0  0  0  0  0  0  0  0  0  0  0
   -9.1020   -0.8237    1.2589 N   0  0  0  0  0  0  0  0  0  0  0  0
   -8.3830   -0.6883    0.1385 C   0  0  0  0  0  0  0  0  0  0  0  0
   -9.0018   -0.9797   -1.0668 C   0  0  0  0  0  0  0  0  0  0  0  0
   -8.3300   -0.8685   -2.2960 C   0  0  0  0  0  0  0  0  0  0  0  0
   -8.9542   -1.1623   -3.5141 C   0  0  0  0  0  0  0  0  0  0  0  0
   -8.2454   -1.0376   -4.7136 C   0  0  0  0  0  0  0  0  0  0  0  0
   -8.8344   -1.3231   -5.9587 C   0  0  0  0  0  0  0  0  0  0  0  0
   -8.0972   -1.1877   -7.1331 C   0  0  0  0  0  0  0  0  0  0  0  0
   -6.7735   -0.7685   -7.0674 C   0  0  0  0  0  0  0  0  0  0  0  0
   -6.1938   -0.4864   -5.8267 C   0  0  0  0  0  0  0  0  0  0  0  0
   -6.9057   -0.6125   -4.6410 C   0  0  0  0  0  0  0  0  0  0  0  0
   -6.3016   -0.3286   -3.4734 N   0  0  0  0  0  0  0  0  0  0  0  0
   -6.9936   -0.4526   -2.3281 C   0  0  0  0  0  0  0  0  0  0  0  0
   -6.3788   -0.1617   -1.1196 C   0  0  0  0  0  0  0  0  0  0  0  0
   -7.0441   -0.2688    0.1314 C   0  0  0  0  0  0  0  0  0  0  0  0
   -4.7228    1.8346    1.4131 C   0  0  0  0  0  0  0  0  0  0  0  0
   -3.3930    2.2571    1.4703 C   0  0  0  0  0  0  0  0  0  0  0  0
   -2.3481    1.3260    1.5703 C   0  0  0  0  0  0  0  0  0  0  0  0
   -1.0056    1.7352    1.6244 C   0  0  0  0  0  0  0  0  0  0  0  0
    0.0412    0.8028    1.7205 C   0  0  0  0  0  0  0  0  0  0  0  0
    1.3848    1.2113    1.7714 C   0  0  0  0  0  0  0  0  0  0  0  0
    2.4313    0.2788    1.8657 C   0  0  0  0  0  0  0  0  0  0  0  0
    3.7759    0.6865    1.9148 C   0  0  0  0  0  0  0  0  0  0  0  0
    9.4987    0.4644   -7.1978 H   0  0  0  0  0  0  0  0  0  0  0  0
    7.1260   -0.2705   -7.2816 H   0  0  0  0  0  0  0  0  0  0  0  0
    5.8293   -0.5019   -5.1866 H   0  0  0  0  0  0  0  0  0  0  0  0
    5.4401   -0.2527   -0.5728 H   0  0  0  0  0  0  0  0  0  0  0  0
   10.1111    1.2218   -0.0582 H   0  0  0  0  0  0  0  0  0  0  0  0
   10.3678    1.1018   -2.5328 H   0  0  0  0  0  0  0  0  0  0  0  0
   10.5534    0.9612   -5.0201 H   0  0  0  0  0  0  0  0  0  0  0  0
    9.8687    1.5112    4.4563 H   0  0  0  0  0  0  0  0  0  0  0  0
    8.7114    1.3264    6.6316 H   0  0  0  0  0  0  0  0  0  0  0  0
    6.3352    0.5972    6.7065 H   0  0  0  0  0  0  0  0  0  0  0  0
    5.1542    0.0659    4.6269 H   0  0  0  0  0  0  0  0  0  0  0  0
    5.2894   -2.3562    2.1247 H   0  0  0  0  0  0  0  0  0  0  0  0
    2.9536   -3.0961    2.0373 H   0  0  0  0  0  0  0  0  0  0  0  0
    0.5487   -2.5677    1.8895 H   0  0  0  0  0  0  0  0  0  0  0  0
   -1.8408   -2.0444    1.7447 H   0  0  0  0  0  0  0  0  0  0  0  0
   -4.2356   -1.5229    1.5893 H   0  0  0  0  0  0  0  0  0  0  0  0
   -5.6858    0.4633    4.0347 H   0  0  0  0  0  0  0  0  0  0  0  0
   -7.1140    0.1723    6.0052 H   0  0  0  0  0  0  0  0  0  0  0  0
   -9.4669   -0.5836    5.7298 H   0  0  0  0  0  0  0  0  0  0  0  0
  -10.3520   -1.0383    3.4695 H   0  0  0  0  0  0  0  0  0  0  0  0
  -10.0407   -1.3035   -1.0436 H   0  0  0  0  0  0  0  0  0  0  0  0
   -9.9917   -1.4883   -3.5280 H   0  0  0  0  0  0  0  0  0  0  0  0
   -9.8693   -1.6521   -6.0176 H   0  0  0  0  0  0  0  0  0  0  0  0
   -8.5538   -1.4090   -8.0944 H   0  0  0  0  0  0  0  0  0  0  0  0
   -6.1874   -0.6594   -7.9762 H   0  0  0  0  0  0  0  0  0  0  0  0
   -5.1575   -0.1596   -5.7818 H   0  0  0  0  0  0  0  0  0  0  0  0
   -5.3394    0.1604   -1.1613 H   0  0  0  0  0  0  0  0  0  0  0  0
   -5.5139    2.5776    1.3315 H   0  0  0  0  0  0  0  0  0  0  0  0
   -3.1795    3.3232    1.4319 H   0  0  0  0  0  0  0  0  0  0  0  0
   -0.7729    2.7980    1.5889 H   0  0  0  0  0  0  0  0  0  0  0  0
    1.6207    2.2735    1.7345 H   0  0  0  0  0  0  0  0  0  0  0  0
    4.0196    1.7475    1.8776 H   0  0  0  0  0  0  0  0  0  0  0  0
  1  2  4  0
  2  3  4  0
  3  4  4  0
  4  5  4  0
  5  6  4  0
  6  7  4  0
  7  8  4  0
  8  9  4  0
  9 10  4  0
 10 11  4  0
 11 12  4  0
 12 13  4  0
 13 14  4  0
  9 15  4  0
 15 16  4  0
 16 17  4  0
 17 18  4  0
 18 19  4  0
 19 20  4  0
 20 21  4  0
 21 22  4  0
 22 23  1  0
 23 24  4  0
 24 25  4  0
 25 26  4  0
 26 27  4  0
 27 28  4  0
 28 29  4  0
 29 30  4  0
 30 31  4  0
 31 32  4  0
 32 33  1  0
 33 34  4  0
 34 35  4  0
 35 36  4  0
 36 37  4  0
 37 38  4  0
 38 39  4  0
 39 40  4  0
 40 41  4  0
 41 42  4  0
 42 43  4  0
 43 44  4  0
 44 45  4  0
 45 46  4  0
 46 47  4  0
 47 48  4  0
 48 49  4  0
 49 50  4  0
 50 51  4  0
 51 52  4  0
 52 53  4  0
 53 54  4  0
 32 55  4  0
 55 56  4  0
 56 57  4  0
 57 58  4  0
 58 59  4  0
 59 60  4  0
 60 61  4  0
 61 62  4  0
 14  1  4  0
 21 16  4  0
 62 23  4  0
 13  4  4  0
 61 26  4  0
 11  6  4  0
 59 28  4  0
 22  8  4  0
 57 30  4  0
 54 33  4  0
 39 34  4  0
 54 41  4  0
 52 43  4  0
 50 45  4  0
  1 63  1  0
  2 64  1  0
  3 65  1  0
  7 66  1  0
 10 67  1  0
 12 68  1  0
 14 69  1  0
 17 70  1  0
 18 71  1  0
 19 72  1  0
 20 73  1  0
 24 74  1  0
 25 75  1  0
 27 76  1  0
 29 77  1  0
 31 78  1  0
 35 79  1  0
 36 80  1  0
 37 81  1  0
 38 82  1  0
 42 83  1  0
 44 84  1  0
 46 85  1  0
 47 86  1  0
 48 87  1  0
 49 88  1  0
 53 89  1  0
 55 90  1  0
 56 91  1  0
 58 92  1  0
 60 93  1  0
 62 94  1  0
M  END
