
     RDKit          3D

 94107  0  0  0  0  0  0  0  0999 V2000
    7.4413   -5.9861    1.4090 C   0  0  0  0  0  0  0  0  0  0  0  0
    8.8032   -5.8804    1.1522 C   0  0  0  0  0  0  0  0  0  0  0  0
    9.3587   -4.6325    0.8534 C   0  0  0  0  0  0  0  0  0  0  0  0
    8.5843   -3.4803    0.8045 C   0  0  0  0  0  0  0  0  0  0  0  0
    9.1619   -2.3032    0.5136 N   0  0  0  0  0  0  0  0  0  0  0  0
    8.4105   -1.1904    0.4693 C   0  0  0  0  0  0  0  0  0  0  0  0
    9.0422   -0.0005    0.1665 C   0  0  0  0  0  0  0  0  0  0  0  0
    8.3488    1.2161    0.0955 C   0  0  0  0  0  0  0  0  0  0  0  0
    9.0215    2.4047   -0.2143 C   0  0  0  0  0  0  0  0  0  0  0  0
    8.3246    3.6135   -0.2820 C   0  0  0  0  0  0  0  0  0  0  0  0
    8.9638    4.8287   -0.5889 C   0  0  0  0  0  0  0  0  0  0  0  0
    8.2318    6.0126   -0.6455 C   0  0  0  0  0  0  0  0  0  0  0  0
    6.8643    5.9852   -0.3971 C   0  0  0  0  0  0  0  0  0  0  0  0
    6.2369    4.7732   -0.0933 C   0  0  0  0  0  0  0  0  0  0  0  0
    6.9443    3.5800   -0.0302 C   0  0  0  0  0  0  0  0  0  0  0  0
    6.2970    2.4406    0.2666 N   0  0  0  0  0  0  0  0  0  0  0  0
    6.9657    1.2668    0.3347 C   0  0  0  0  0  0  0  0  0  0  0  0
    6.3047    0.0612    0.6464 C   0  0  0  0  0  0  0  0  0  0  0  0
    4.8491    0.0860    0.9072 C   0  0  0  0  0  0  0  0  0  0  0  0
    4.3583    0.2137    2.2129 C   0  0  0  0  0  0  0  0  0  0  0  0
    2.9833    0.2145    2.4601 C   0  0  0  0  0  0  0  0  0  0  0  0
    2.0648    0.0923    1.4067 C   0  0  0  0  0  0  0  0  0  0  0  0
    0.6795    0.0942    1.6389 C   0  0  0  0  0  0  0  0  0  0  0  0
   -0.2402   -0.0192    0.5829 C   0  0  0  0  0  0  0  0  0  0  0  0
   -1.6256   -0.0097    0.8148 C   0  0  0  0  0  0  0  0  0  0  0  0
   -2.5459   -0.1097   -0.2417 C   0  0  0  0  0  0  0  0  0  0  0  0
   -3.9319   -0.0836   -0.0106 C   0  0  0  0  0  0  0  0  0  0  0  0
   -4.8526   -0.1618   -1.0691 C   0  0  0  0  0  0  0  0  0  0  0  0
   -6.3067   -0.0776   -0.8112 C   0  0  0  0  0  0  0  0  0  0  0  0
   -7.0690   -1.2625   -0.7729 C   0  0  0  0  0  0  0  0  0  0  0  0
   -6.5012   -2.4732   -0.9759 N   0  0  0  0  0  0  0  0  0  0  0  0
   -7.2445   -3.5917   -0.9354 C   0  0  0  0  0  0  0  0  0  0  0  0
   -6.6400   -4.8234   -1.1484 C   0  0  0  0  0  0  0  0  0  0  0  0
   -7.3692   -6.0158   -1.1174 C   0  0  0  0  0  0  0  0  0  0  0  0
   -8.7363   -5.9840   -0.8681 C   0  0  0  0  0  0  0  0  0  0  0  0
   -9.3663   -4.7608   -0.6510 C   0  0  0  0  0  0  0  0  0  0  0  0
   -8.6250   -3.5655   -0.6840 C   0  0  0  0  0  0  0  0  0  0  0  0
   -9.2177   -2.3187   -0.4722 C   0  0  0  0  0  0  0  0  0  0  0  0
   -8.4451   -1.1516   -0.5145 C   0  0  0  0  0  0  0  0  0  0  0  0
   -9.0339    0.1030   -0.3025 C   0  0  0  0  0  0  0  0  0  0  0  0
   -8.3035    1.2741   -0.3417 C   0  0  0  0  0  0  0  0  0  0  0  0
   -8.9593    2.4271   -0.1294 N   0  0  0  0  0  0  0  0  0  0  0  0
   -8.2847    3.5878   -0.1660 C   0  0  0  0  0  0  0  0  0  0  0  0
   -8.9588    4.7823    0.0534 C   0  0  0  0  0  0  0  0  0  0  0  0
   -8.2998    6.0150    0.0234 C   0  0  0  0  0  0  0  0  0  0  0  0
   -6.9342    6.0629   -0.2312 C   0  0  0  0  0  0  0  0  0  0  0  0
   -6.2355    4.8789   -0.4540 C   0  0  0  0  0  0  0  0  0  0  0  0
   -6.9061    3.6429   -0.4221 C   0  0  0  0  0  0  0  0  0  0  0  0
   -6.2396    2.4321   -0.6406 C   0  0  0  0  0  0  0  0  0  0  0  0
   -6.9256    1.1987   -0.6014 C   0  0  0  0  0  0  0  0  0  0  0  0
   -4.3625   -0.2927   -2.3743 C   0  0  0  0  0  0  0  0  0  0  0  0
   -2.9875   -0.3280   -2.6184 C   0  0  0  0  0  0  0  0  0  0  0  0
   -2.0685   -0.2308   -1.5627 C   0  0  0  0  0  0  0  0  0  0  0  0
   -0.6833   -0.2484   -1.7935 C   0  0  0  0  0  0  0  0  0  0  0  0
    0.2367   -0.1402   -0.7371 C   0  0  0  0  0  0  0  0  0  0  0  0
    1.6223   -0.1461   -0.9690 C   0  0  0  0  0  0  0  0  0  0  0  0
    2.5428   -0.0302    0.0858 C   0  0  0  0  0  0  0  0  0  0  0  0
    3.9292   -0.0314   -0.1475 C   0  0  0  0  0  0  0  0  0  0  0  0
    7.0275   -1.1749    0.7130 C   0  0  0  0  0  0  0  0  0  0  0  0
    6.4425   -2.4239    1.0133 C   0  0  0  0  0  0  0  0  0  0  0  0
    7.2101   -3.5934    1.0648 C   0  0  0  0  0  0  0  0  0  0  0  0
    6.6434   -4.8452    1.3656 C   0  0  0  0  0  0  0  0  0  0  0  0
    7.0009   -6.9518    1.6429 H   0  0  0  0  0  0  0  0  0  0  0  0
    9.4374   -6.7626    1.1832 H   0  0  0  0  0  0  0  0  0  0  0  0
   10.4248   -4.5558    0.6536 H   0  0  0  0  0  0  0  0  0  0  0  0
   10.1146   -0.0273   -0.0204 H   0  0  0  0  0  0  0  0  0  0  0  0
   10.0928    2.3895   -0.4031 H   0  0  0  0  0  0  0  0  0  0  0  0
   10.0333    4.8565   -0.7840 H   0  0  0  0  0  0  0  0  0  0  0  0
    8.7265    6.9511   -0.8820 H   0  0  0  0  0  0  0  0  0  0  0  0
    6.2809    6.9013   -0.4374 H   0  0  0  0  0  0  0  0  0  0  0  0
    5.1667    4.7572    0.1004 H   0  0  0  0  0  0  0  0  0  0  0  0
    5.0486    0.3188    3.0473 H   0  0  0  0  0  0  0  0  0  0  0  0
    2.6364    0.3169    3.4858 H   0  0  0  0  0  0  0  0  0  0  0  0
    0.3107    0.1912    2.6584 H   0  0  0  0  0  0  0  0  0  0  0  0
   -1.9957    0.0815    1.8345 H   0  0  0  0  0  0  0  0  0  0  0  0
   -4.3071    0.0069    1.0077 H   0  0  0  0  0  0  0  0  0  0  0  0
   -5.5706   -4.8542   -1.3438 H   0  0  0  0  0  0  0  0  0  0  0  0
   -6.8646   -6.9631   -1.2881 H   0  0  0  0  0  0  0  0  0  0  0  0
   -9.3096   -6.9069   -0.8422 H   0  0  0  0  0  0  0  0  0  0  0  0
  -10.4361   -4.7428   -0.4561 H   0  0  0  0  0  0  0  0  0  0  0  0
  -10.2855   -2.2567   -0.2738 H   0  0  0  0  0  0  0  0  0  0  0  0
  -10.1015    0.1762   -0.1016 H   0  0  0  0  0  0  0  0  0  0  0  0
  -10.0274    4.7522    0.2525 H   0  0  0  0  0  0  0  0  0  0  0  0
   -8.8571    6.9314    0.1986 H   0  0  0  0  0  0  0  0  0  0  0  0
   -6.4144    7.0170   -0.2565 H   0  0  0  0  0  0  0  0  0  0  0  0
   -5.1666    4.9222   -0.6522 H   0  0  0  0  0  0  0  0  0  0  0  0
   -5.1711    2.4555   -0.8468 H   0  0  0  0  0  0  0  0  0  0  0  0
   -5.0539   -0.3699   -3.2110 H   0  0  0  0  0  0  0  0  0  0  0  0
   -2.6410   -0.4303   -3.6442 H   0  0  0  0  0  0  0  0  0  0  0  0
   -0.3158   -0.3434   -2.8135 H   0  0  0  0  0  0  0  0  0  0  0  0
    1.9920   -0.2370   -1.9889 H   0  0  0  0  0  0  0  0  0  0  0  0
    4.3047   -0.1183   -1.1659 H   0  0  0  0  0  0  0  0  0  0  0  0
    5.3743   -2.4915    1.2103 H   0  0  0  0  0  0  0  0  0  0  0  0
    5.5783   -4.9342    1.5677 H   0  0  0  0  0  0  0  0  0  0  0  0
  1  2  4  0
  2  3  4  0
  3  4  4  0
  4  5  4  0
  5  6  4  0
  6  7  4  0
  7  8  4  0
  8  9  4  0
  9 10  4  0
 10 11  4  0
 11 12  4  0
 12 13  4  0
 13 14  4  0
 14 15  4  0
 15 16  4  0
 16 17  4  0
 17 18  4  0
 18 19  1  0
 19 20  4  0
 20 21  4  0
 21 22  4  0
 22 23  4  0
 23 24  4  0
 24 25  4  0
 25 26  4  0
 26 27  4  0
 27 28  4  0
 28 29  1  0
 29 30  4  0
 30 31  4  0
 31 32  4  0
 32 33  4  0
 33 34  4  0
 34 35  4  0
 35 36  4  0
 36 37  4  0
 37 38  4  0
 38 39  4  0
 39 40  4  0
 40 41  4  0
 41 42  4  0
 42 43  4  0
 43 44  4  0
 44 45  4  0
 45 46  4  0
 46 47  4  0
 47 48  4  0
 48 49  4  0
 49 50  4  0
 28 51  4  0
 51 52  4  0
 52 53  4  0
 53 54  4  0
 54 55  4  0
 55 56  4  0
 56 57  4  0
 57 58  4  0
 18 59  4  0
 59 60  4  0
 60 61  4  0
 61 62  4  0
 62  1  4  0
 61  4  4  0
 59  6  4  0
 17  8  4  0
 58 19  4  0
 15 10  4  0
 57 22  4  0
 55 24  4  0
 53 26  4  0
 50 29  4  0
 39 30  4  0
 50 41  4  0
 37 32  4  0
 48 43  4  0
  1 63  1  0
  2 64  1  0
  3 65  1  0
  7 66  1  0
  9 67  1  0
 11 68  1  0
 12 69  1  0
 13 70  1  0
 14 71  1  0
 20 72  1  0
 21 73  1  0
 23 74  1  0
 25 75  1  0
 27 76  1  0
 33 77  1  0
 34 78  1  0
 35 79  1  0
 36 80  1  0
 38 81  1  0
 40 82  1  0
 44 83  1  0
 45 84  1  0
 46 85  1  0
 47 86  1  0
 49 87  1  0
 51 88  1  0
 52 89  1  0
 54 90  1  0
 56 91  1  0
 58 92  1  0
 60 93  1  0
 62 94  1  0
M  END
