
     RDKit          3D

 94107  0  0  0  0  0  0  0  0999 V2000
  -16.9749    0.2093    3.0202 C   0  0  0  0  0  0  0  0  0  0  0  0
  -15.6067   -0.0113    3.1619 C   0  0  0  0  0  0  0  0  0  0  0  0
  -14.7499    0.1052    2.0525 C   0  0  0  0  0  0  0  0  0  0  0  0
  -13.3715   -0.1091    2.1580 C   0  0  0  0  0  0  0  0  0  0  0  0
  -12.5526    0.0165    1.0302 C   0  0  0  0  0  0  0  0  0  0  0  0
  -11.1615   -0.1906    1.0918 C   0  0  0  0  0  0  0  0  0  0  0  0
  -10.3540   -0.0653   -0.0275 C   0  0  0  0  0  0  0  0  0  0  0  0
   -9.0314   -0.2740    0.0848 N   0  0  0  0  0  0  0  0  0  0  0  0
   -8.2511   -0.1524   -1.0041 C   0  0  0  0  0  0  0  0  0  0  0  0
   -6.8835   -0.3693   -0.8906 C   0  0  0  0  0  0  0  0  0  0  0  0
   -6.0054   -0.2611   -1.9844 C   0  0  0  0  0  0  0  0  0  0  0  0
   -4.5624   -0.4977   -1.8221 C   0  0  0  0  0  0  0  0  0  0  0  0
   -3.8903   -1.4351   -2.6181 C   0  0  0  0  0  0  0  0  0  0  0  0
   -2.5198   -1.6610   -2.4619 C   0  0  0  0  0  0  0  0  0  0  0  0
   -1.7814   -0.9520   -1.5038 C   0  0  0  0  0  0  0  0  0  0  0  0
   -0.4039   -1.1662   -1.3339 C   0  0  0  0  0  0  0  0  0  0  0  0
    0.3348   -0.4534   -0.3747 C   0  0  0  0  0  0  0  0  0  0  0  0
    1.7131   -0.6662   -0.2055 C   0  0  0  0  0  0  0  0  0  0  0  0
    2.4529    0.0478    0.7517 C   0  0  0  0  0  0  0  0  0  0  0  0
    3.8335   -0.1632    0.9193 C   0  0  0  0  0  0  0  0  0  0  0  0
    4.5808    0.5486    1.8737 C   0  0  0  0  0  0  0  0  0  0  0  0
    6.0263    0.3179    2.0285 C   0  0  0  0  0  0  0  0  0  0  0  0
    6.5827    0.0171    3.2779 C   0  0  0  0  0  0  0  0  0  0  0  0
    7.9539   -0.2029    3.4109 C   0  0  0  0  0  0  0  0  0  0  0  0
    8.7938   -0.1249    2.2894 C   0  0  0  0  0  0  0  0  0  0  0  0
   10.1728   -0.3406    2.3827 C   0  0  0  0  0  0  0  0  0  0  0  0
   10.9753   -0.2541    1.2398 C   0  0  0  0  0  0  0  0  0  0  0  0
   12.3661   -0.4639    1.2885 C   0  0  0  0  0  0  0  0  0  0  0  0
   13.1576   -0.3778    0.1545 C   0  0  0  0  0  0  0  0  0  0  0  0
   14.4807   -0.5875    0.2564 N   0  0  0  0  0  0  0  0  0  0  0  0
   15.2458   -0.5032   -0.8468 C   0  0  0  0  0  0  0  0  0  0  0  0
   16.6139   -0.7191   -0.7469 C   0  0  0  0  0  0  0  0  0  0  0  0
   17.4549   -0.6439   -1.8614 C   0  0  0  0  0  0  0  0  0  0  0  0
   16.9230   -0.3460   -3.1105 C   0  0  0  0  0  0  0  0  0  0  0  0
   15.5537   -0.1247   -3.2395 C   0  0  0  0  0  0  0  0  0  0  0  0
   14.7128   -0.2018   -2.1145 C   0  0  0  0  0  0  0  0  0  0  0  0
   13.3337    0.0144   -2.2069 C   0  0  0  0  0  0  0  0  0  0  0  0
   12.5310   -0.0715   -1.0638 C   0  0  0  0  0  0  0  0  0  0  0  0
   11.1400    0.1385   -1.1123 C   0  0  0  0  0  0  0  0  0  0  0  0
   10.3485    0.0522    0.0218 C   0  0  0  0  0  0  0  0  0  0  0  0
    9.0252    0.2609   -0.0789 N   0  0  0  0  0  0  0  0  0  0  0  0
    8.2602    0.1762    1.0241 C   0  0  0  0  0  0  0  0  0  0  0  0
    6.8916    0.3913    0.9214 C   0  0  0  0  0  0  0  0  0  0  0  0
    3.9083    1.4863    2.6688 C   0  0  0  0  0  0  0  0  0  0  0  0
    2.5365    1.7083    2.5156 C   0  0  0  0  0  0  0  0  0  0  0  0
    1.7970    0.9965    1.5606 C   0  0  0  0  0  0  0  0  0  0  0  0
    0.4189    1.2094    1.3922 C   0  0  0  0  0  0  0  0  0  0  0  0
   -0.3200    0.4958    0.4340 C   0  0  0  0  0  0  0  0  0  0  0  0
   -1.6982    0.7087    0.2647 C   0  0  0  0  0  0  0  0  0  0  0  0
   -2.4375   -0.0039   -0.6940 C   0  0  0  0  0  0  0  0  0  0  0  0
   -3.8174    0.2094   -0.8631 C   0  0  0  0  0  0  0  0  0  0  0  0
   -6.5455    0.0796   -3.2305 C   0  0  0  0  0  0  0  0  0  0  0  0
   -7.9146    0.3036   -3.3737 C   0  0  0  0  0  0  0  0  0  0  0  0
   -8.7686    0.1884   -2.2662 C   0  0  0  0  0  0  0  0  0  0  0  0
  -10.1466    0.4044   -2.3715 C   0  0  0  0  0  0  0  0  0  0  0  0
  -10.9647    0.2787   -1.2436 C   0  0  0  0  0  0  0  0  0  0  0  0
  -12.3556    0.4859   -1.3054 C   0  0  0  0  0  0  0  0  0  0  0  0
  -13.1629    0.3602   -0.1864 C   0  0  0  0  0  0  0  0  0  0  0  0
  -14.4852    0.5685   -0.3010 N   0  0  0  0  0  0  0  0  0  0  0  0
  -15.2656    0.4458    0.7876 C   0  0  0  0  0  0  0  0  0  0  0  0
  -16.6330    0.6601    0.6748 C   0  0  0  0  0  0  0  0  0  0  0  0
  -17.4899    0.5458    1.7738 C   0  0  0  0  0  0  0  0  0  0  0  0
  -17.6354    0.1188    3.8787 H   0  0  0  0  0  0  0  0  0  0  0  0
  -15.2112   -0.2743    4.1404 H   0  0  0  0  0  0  0  0  0  0  0  0
  -12.9358   -0.3739    3.1188 H   0  0  0  0  0  0  0  0  0  0  0  0
  -10.6906   -0.4572    2.0357 H   0  0  0  0  0  0  0  0  0  0  0  0
   -6.4929   -0.6442    0.0879 H   0  0  0  0  0  0  0  0  0  0  0  0
   -4.4354   -2.0119   -3.3627 H   0  0  0  0  0  0  0  0  0  0  0  0
   -2.0347   -2.4005   -3.0954 H   0  0  0  0  0  0  0  0  0  0  0  0
    0.1025   -1.8994   -1.9589 H   0  0  0  0  0  0  0  0  0  0  0  0
    2.2201   -1.3993   -0.8307 H   0  0  0  0  0  0  0  0  0  0  0  0
    4.3366   -0.9040    0.2990 H   0  0  0  0  0  0  0  0  0  0  0  0
    5.9470   -0.0612    4.1580 H   0  0  0  0  0  0  0  0  0  0  0  0
    8.3595   -0.4387    4.3921 H   0  0  0  0  0  0  0  0  0  0  0  0
   10.6222   -0.5761    3.3448 H   0  0  0  0  0  0  0  0  0  0  0  0
   12.8497   -0.7012    2.2337 H   0  0  0  0  0  0  0  0  0  0  0  0
   17.0374   -0.9527    0.2271 H   0  0  0  0  0  0  0  0  0  0  0  0
   18.5217   -0.8186   -1.7475 H   0  0  0  0  0  0  0  0  0  0  0  0
   17.5712   -0.2860   -3.9810 H   0  0  0  0  0  0  0  0  0  0  0  0
   15.1447    0.1079   -4.2201 H   0  0  0  0  0  0  0  0  0  0  0  0
   12.8847    0.2497   -3.1691 H   0  0  0  0  0  0  0  0  0  0  0  0
   10.6564    0.3761   -2.0575 H   0  0  0  0  0  0  0  0  0  0  0  0
    6.4894    0.6357   -0.0606 H   0  0  0  0  0  0  0  0  0  0  0  0
    4.4529    2.0676    3.4102 H   0  0  0  0  0  0  0  0  0  0  0  0
    2.0514    2.4482    3.1485 H   0  0  0  0  0  0  0  0  0  0  0  0
   -0.0853    1.9443    2.0170 H   0  0  0  0  0  0  0  0  0  0  0  0
   -2.2049    1.4416    0.8903 H   0  0  0  0  0  0  0  0  0  0  0  0
   -4.3203    0.9493   -0.2418 H   0  0  0  0  0  0  0  0  0  0  0  0
   -5.8983    0.1855   -4.0991 H   0  0  0  0  0  0  0  0  0  0  0  0
   -8.3079    0.5706   -4.3518 H   0  0  0  0  0  0  0  0  0  0  0  0
  -10.5832    0.6698   -3.3317 H   0  0  0  0  0  0  0  0  0  0  0  0
  -12.8268    0.7524   -2.2492 H   0  0  0  0  0  0  0  0  0  0  0  0
  -17.0429    0.9238   -0.2974 H   0  0  0  0  0  0  0  0  0  0  0  0
  -18.5557    0.7204    1.6503 H   0  0  0  0  0  0  0  0  0  0  0  0
  1  2  4  0
  2  3  4  0
  3  4  4  0
  4  5  4  0
  5  6  4  0
  6  7  4  0
  7  8  4  0
  8  9  4  0
  9 10  4  0
 10 11  4  0
 11 12  1  0
 12 13  4  0
 13 14  4  0
 14 15  4  0
 15 16  4  0
 16 17  4  0
 17 18  4  0
 18 19  4  0
 19 20  4  0
 20 21  4  0
 21 22  1  0
 22 23  4  0
 23 24  4  0
 24 25  4  0
 25 26  4  0
 26 27  4  0
 27 28  4  0
 28 29  4  0
 29 30  4  0
 30 31  4  0
 31 32  4  0
 32 33  4  0
 33 34  4  0
 34 35  4  0
 35 36  4  0
 36 37  4  0
 37 38  4  0
 38 39  4  0
 39 40  4  0
 40 41  4  0
 41 42  4  0
 42 43  4  0
 21 44  4  0
 44 45  4  0
 45 46  4  0
 46 47  4  0
 47 48  4  0
 48 49  4  0
 49 50  4  0
 50 51  4  0
 11 52  4  0
 52 53  4  0
 53 54  4  0
 54 55  4  0
 55 56  4  0
 56 57  4  0
 57 58  4  0
 58 59  4  0
 59 60  4  0
 60 61  4  0
 61 62  4  0
 62  1  4  0
 60  3  4  0
 58  5  4  0
 56  7  4  0
 54  9  4  0
 51 12  4  0
 50 15  4  0
 48 17  4  0
 46 19  4  0
 43 22  4  0
 42 25  4  0
 40 27  4  0
 38 29  4  0
 36 31  4  0
  1 63  1  0
  2 64  1  0
  4 65  1  0
  6 66  1  0
 10 67  1  0
 13 68  1  0
 14 69  1  0
 16 70  1  0
 18 71  1  0
 20 72  1  0
 23 73  1  0
 24 74  1  0
 26 75  1  0
 28 76  1  0
 32 77  1  0
 33 78  1  0
 34 79  1  0
 35 80  1  0
 37 81  1  0
 39 82  1  0
 43 83  1  0
 44 84  1  0
 45 85  1  0
 47 86  1  0
 49 87  1  0
 51 88  1  0
 52 89  1  0
 53 90  1  0
 55 91  1  0
 57 92  1  0
 61 93  1  0
 62 94  1  0
M  END
