
     RDKit          3D

 94107  0  0  0  0  0  0  0  0999 V2000
  -13.3949    0.3088   -4.0010 C   0  0  0  0  0  0  0  0  0  0  0  0
  -12.2691    0.2794   -4.8157 C   0  0  0  0  0  0  0  0  0  0  0  0
  -11.0050    0.0905   -4.2490 C   0  0  0  0  0  0  0  0  0  0  0  0
  -10.8335   -0.0711   -2.8804 C   0  0  0  0  0  0  0  0  0  0  0  0
   -9.5955   -0.2503   -2.3857 N   0  0  0  0  0  0  0  0  0  0  0  0
   -9.4348   -0.4068   -1.0610 C   0  0  0  0  0  0  0  0  0  0  0  0
   -8.1622   -0.5929   -0.5467 C   0  0  0  0  0  0  0  0  0  0  0  0
   -7.9378   -0.7628    0.8325 C   0  0  0  0  0  0  0  0  0  0  0  0
   -6.6546   -0.9524    1.3571 C   0  0  0  0  0  0  0  0  0  0  0  0
   -6.4520   -1.1202    2.7415 C   0  0  0  0  0  0  0  0  0  0  0  0
   -7.6077   -1.0865    3.5489 C   0  0  0  0  0  0  0  0  0  0  0  0
   -8.8451   -0.9048    3.0543 N   0  0  0  0  0  0  0  0  0  0  0  0
   -9.0114   -0.7469    1.7316 C   0  0  0  0  0  0  0  0  0  0  0  0
  -10.2855   -0.5607    1.2186 C   0  0  0  0  0  0  0  0  0  0  0  0
  -10.5118   -0.3913   -0.1605 C   0  0  0  0  0  0  0  0  0  0  0  0
  -11.7964   -0.2042   -0.6829 C   0  0  0  0  0  0  0  0  0  0  0  0
  -11.9774   -0.0404   -2.0604 C   0  0  0  0  0  0  0  0  0  0  0  0
  -13.2518    0.1494   -2.6245 C   0  0  0  0  0  0  0  0  0  0  0  0
   -7.4703   -1.2482    4.9194 C   0  0  0  0  0  0  0  0  0  0  0  0
   -6.2265   -1.4426    5.5187 C   0  0  0  0  0  0  0  0  0  0  0  0
   -5.0829   -1.4768    4.7308 C   0  0  0  0  0  0  0  0  0  0  0  0
   -5.1723   -1.3173    3.3391 C   0  0  0  0  0  0  0  0  0  0  0  0
   -3.9357   -1.3588    2.5451 C   0  0  0  0  0  0  0  0  0  0  0  0
   -3.4319   -2.5757    2.0713 C   0  0  0  0  0  0  0  0  0  0  0  0
   -2.2674   -2.6114    1.3007 C   0  0  0  0  0  0  0  0  0  0  0  0
   -1.5793   -1.4300    0.9860 C   0  0  0  0  0  0  0  0  0  0  0  0
   -0.4114   -1.4493    0.2070 C   0  0  0  0  0  0  0  0  0  0  0  0
    0.2783   -0.2666   -0.1085 C   0  0  0  0  0  0  0  0  0  0  0  0
    1.4471   -0.2869   -0.8877 C   0  0  0  0  0  0  0  0  0  0  0  0
    2.1382    0.8945   -1.2024 C   0  0  0  0  0  0  0  0  0  0  0  0
    3.3078    0.8725   -1.9815 C   0  0  0  0  0  0  0  0  0  0  0  0
    4.0061    2.0517   -2.2877 C   0  0  0  0  0  0  0  0  0  0  0  0
    5.2312    2.0090   -3.1021 C   0  0  0  0  0  0  0  0  0  0  0  0
    5.1525    2.4028   -4.4478 C   0  0  0  0  0  0  0  0  0  0  0  0
    6.2771    2.3662   -5.2622 C   0  0  0  0  0  0  0  0  0  0  0  0
    7.4929    1.9330   -4.7370 C   0  0  0  0  0  0  0  0  0  0  0  0
    7.6207    1.5365   -3.4147 C   0  0  0  0  0  0  0  0  0  0  0  0
    8.8321    1.1323   -2.9948 N   0  0  0  0  0  0  0  0  0  0  0  0
    8.9928    0.7434   -1.7209 C   0  0  0  0  0  0  0  0  0  0  0  0
   10.2391    0.3203   -1.2881 C   0  0  0  0  0  0  0  0  0  0  0  0
   10.4587   -0.1007    0.0365 C   0  0  0  0  0  0  0  0  0  0  0  0
   11.7143   -0.5323    0.4773 C   0  0  0  0  0  0  0  0  0  0  0  0
   11.8883   -0.9450    1.8022 C   0  0  0  0  0  0  0  0  0  0  0  0
   13.1331   -1.3868    2.2841 C   0  0  0  0  0  0  0  0  0  0  0  0
   13.2697   -1.7913    3.6099 C   0  0  0  0  0  0  0  0  0  0  0  0
   12.1671   -1.7555    4.4555 C   0  0  0  0  0  0  0  0  0  0  0  0
   10.9322   -1.3150    3.9706 C   0  0  0  0  0  0  0  0  0  0  0  0
   10.7679   -0.9066    2.6539 C   0  0  0  0  0  0  0  0  0  0  0  0
    9.5582   -0.4930    2.2380 N   0  0  0  0  0  0  0  0  0  0  0  0
    9.4040   -0.0988    0.9633 C   0  0  0  0  0  0  0  0  0  0  0  0
    8.1598    0.3277    0.5295 C   0  0  0  0  0  0  0  0  0  0  0  0
    7.9410    0.7457   -0.7965 C   0  0  0  0  0  0  0  0  0  0  0  0
    6.6850    1.1718   -1.2428 C   0  0  0  0  0  0  0  0  0  0  0  0
    6.4852    1.5751   -2.5784 C   0  0  0  0  0  0  0  0  0  0  0  0
    3.5072    3.2684   -1.8077 C   0  0  0  0  0  0  0  0  0  0  0  0
    2.3418    3.3071   -1.0374 C   0  0  0  0  0  0  0  0  0  0  0  0
    1.6489    2.1276   -0.7254 C   0  0  0  0  0  0  0  0  0  0  0  0
    0.4794    2.1478    0.0523 C   0  0  0  0  0  0  0  0  0  0  0  0
   -0.2121    0.9655    0.3666 C   0  0  0  0  0  0  0  0  0  0  0  0
   -1.3819    0.9851    1.1449 C   0  0  0  0  0  0  0  0  0  0  0  0
   -2.0718   -0.1970    1.4608 C   0  0  0  0  0  0  0  0  0  0  0  0
   -3.2433   -0.1771    2.2372 C   0  0  0  0  0  0  0  0  0  0  0  0
  -14.3806    0.4553   -4.4349 H   0  0  0  0  0  0  0  0  0  0  0  0
  -12.3676    0.4026   -5.8912 H   0  0  0  0  0  0  0  0  0  0  0  0
  -10.1286    0.0686   -4.8924 H   0  0  0  0  0  0  0  0  0  0  0  0
   -7.3250   -0.6058   -1.2416 H   0  0  0  0  0  0  0  0  0  0  0  0
   -5.8055   -0.9699    0.6765 H   0  0  0  0  0  0  0  0  0  0  0  0
  -11.1213   -0.5483    1.9149 H   0  0  0  0  0  0  0  0  0  0  0  0
  -12.6558   -0.1866   -0.0167 H   0  0  0  0  0  0  0  0  0  0  0  0
  -14.1376    0.1735   -1.9938 H   0  0  0  0  0  0  0  0  0  0  0  0
   -8.3628   -1.2222    5.5410 H   0  0  0  0  0  0  0  0  0  0  0  0
   -6.1545   -1.5660    6.5961 H   0  0  0  0  0  0  0  0  0  0  0  0
   -4.1136   -1.6276    5.2031 H   0  0  0  0  0  0  0  0  0  0  0  0
   -3.9511   -3.5058    2.2945 H   0  0  0  0  0  0  0  0  0  0  0  0
   -1.9033   -3.5727    0.9445 H   0  0  0  0  0  0  0  0  0  0  0  0
   -0.0303   -2.4009   -0.1599 H   0  0  0  0  0  0  0  0  0  0  0  0
    1.8269   -1.2391   -1.2546 H   0  0  0  0  0  0  0  0  0  0  0  0
    3.6873   -0.0774   -2.3561 H   0  0  0  0  0  0  0  0  0  0  0  0
    4.2031    2.7332   -4.8659 H   0  0  0  0  0  0  0  0  0  0  0  0
    6.2111    2.6691   -6.3036 H   0  0  0  0  0  0  0  0  0  0  0  0
    8.3702    1.9034   -5.3797 H   0  0  0  0  0  0  0  0  0  0  0  0
   11.0571    0.3185   -2.0051 H   0  0  0  0  0  0  0  0  0  0  0  0
   12.5560   -0.5478   -0.2112 H   0  0  0  0  0  0  0  0  0  0  0  0
   14.0008   -1.4176    1.6290 H   0  0  0  0  0  0  0  0  0  0  0  0
   14.2326   -2.1326    3.9807 H   0  0  0  0  0  0  0  0  0  0  0  0
   12.2610   -2.0684    5.4921 H   0  0  0  0  0  0  0  0  0  0  0  0
   10.0744   -1.2895    4.6385 H   0  0  0  0  0  0  0  0  0  0  0  0
    7.3400    0.3306    1.2451 H   0  0  0  0  0  0  0  0  0  0  0  0
    5.8556    1.1889   -0.5385 H   0  0  0  0  0  0  0  0  0  0  0  0
    4.0296    4.1974   -2.0275 H   0  0  0  0  0  0  0  0  0  0  0  0
    1.9813    4.2695   -0.6804 H   0  0  0  0  0  0  0  0  0  0  0  0
    0.0999    3.0999    0.4195 H   0  0  0  0  0  0  0  0  0  0  0  0
   -1.7622    1.9372    1.5116 H   0  0  0  0  0  0  0  0  0  0  0  0
   -3.6313    0.7722    2.6041 H   0  0  0  0  0  0  0  0  0  0  0  0
  1  2  4  0
  2  3  4  0
  3  4  4  0
  4  5  4  0
  5  6  4  0
  6  7  4  0
  7  8  4  0
  8  9  4  0
  9 10  4  0
 10 11  4  0
 11 12  4  0
 12 13  4  0
 13 14  4  0
 14 15  4  0
 15 16  4  0
 16 17  4  0
 17 18  4  0
 11 19  4  0
 19 20  4  0
 20 21  4  0
 21 22  4  0
 22 23  1  0
 23 24  4  0
 24 25  4  0
 25 26  4  0
 26 27  4  0
 27 28  4  0
 28 29  4  0
 29 30  4  0
 30 31  4  0
 31 32  4  0
 32 33  1  0
 33 34  4  0
 34 35  4  0
 35 36  4  0
 36 37  4  0
 37 38  4  0
 38 39  4  0
 39 40  4  0
 40 41  4  0
 41 42  4  0
 42 43  4  0
 43 44  4  0
 44 45  4  0
 45 46  4  0
 46 47  4  0
 47 48  4  0
 48 49  4  0
 49 50  4  0
 50 51  4  0
 51 52  4  0
 52 53  4  0
 53 54  4  0
 32 55  4  0
 55 56  4  0
 56 57  4  0
 57 58  4  0
 58 59  4  0
 59 60  4  0
 60 61  4  0
 61 62  4  0
 18  1  4  0
 62 23  4  0
 17  4  4  0
 61 26  4  0
 15  6  4  0
 59 28  4  0
 13  8  4  0
 57 30  4  0
 22 10  4  0
 54 33  4  0
 54 37  4  0
 52 39  4  0
 50 41  4  0
 48 43  4  0
  1 63  1  0
  2 64  1  0
  3 65  1  0
  7 66  1  0
  9 67  1  0
 14 68  1  0
 16 69  1  0
 18 70  1  0
 19 71  1  0
 20 72  1  0
 21 73  1  0
 24 74  1  0
 25 75  1  0
 27 76  1  0
 29 77  1  0
 31 78  1  0
 34 79  1  0
 35 80  1  0
 36 81  1  0
 40 82  1  0
 42 83  1  0
 44 84  1  0
 45 85  1  0
 46 86  1  0
 47 87  1  0
 51 88  1  0
 53 89  1  0
 55 90  1  0
 56 91  1  0
 58 92  1  0
 60 93  1  0
 62 94  1  0
M  END
