
     RDKit          3D

 94107  0  0  0  0  0  0  0  0999 V2000
  -10.2472   -7.0570    0.8199 C   0  0  0  0  0  0  0  0  0  0  0  0
   -9.2786   -6.1116    0.4901 C   0  0  0  0  0  0  0  0  0  0  0  0
   -9.4137   -4.7779    0.9162 C   0  0  0  0  0  0  0  0  0  0  0  0
   -8.4608   -3.8025    0.6035 C   0  0  0  0  0  0  0  0  0  0  0  0
   -8.6315   -2.4860    1.0464 C   0  0  0  0  0  0  0  0  0  0  0  0
   -7.6981   -1.4737    0.7543 C   0  0  0  0  0  0  0  0  0  0  0  0
   -7.8721   -0.1713    1.1947 C   0  0  0  0  0  0  0  0  0  0  0  0
   -6.9553    0.7594    0.8863 N   0  0  0  0  0  0  0  0  0  0  0  0
   -7.1028    2.0398    1.3028 C   0  0  0  0  0  0  0  0  0  0  0  0
   -6.1499    3.0341    0.9884 C   0  0  0  0  0  0  0  0  0  0  0  0
   -4.9461    2.7367    0.1777 C   0  0  0  0  0  0  0  0  0  0  0  0
   -5.0525    2.1796   -1.1038 C   0  0  0  0  0  0  0  0  0  0  0  0
   -3.9165    1.9268   -1.8786 C   0  0  0  0  0  0  0  0  0  0  0  0
   -2.6359    2.2322   -1.3959 C   0  0  0  0  0  0  0  0  0  0  0  0
   -1.4851    1.9940   -2.1662 C   0  0  0  0  0  0  0  0  0  0  0  0
   -0.2022    2.3059   -1.6844 C   0  0  0  0  0  0  0  0  0  0  0  0
    0.9491    2.0731   -2.4566 C   0  0  0  0  0  0  0  0  0  0  0  0
    2.2319    2.3892   -1.9771 C   0  0  0  0  0  0  0  0  0  0  0  0
    3.3847    2.1597   -2.7512 C   0  0  0  0  0  0  0  0  0  0  0  0
    4.6703    2.4762   -2.2768 C   0  0  0  0  0  0  0  0  0  0  0  0
    5.8668    2.2506   -3.1167 C   0  0  0  0  0  0  0  0  0  0  0  0
    6.9197    1.4093   -2.6977 C   0  0  0  0  0  0  0  0  0  0  0  0
    6.8744    0.7600   -1.5105 N   0  0  0  0  0  0  0  0  0  0  0  0
    7.8831   -0.0395   -1.1306 C   0  0  0  0  0  0  0  0  0  0  0  0
    7.8112   -0.6950    0.0879 C   0  0  0  0  0  0  0  0  0  0  0  0
    8.8419   -1.5426    0.5348 C   0  0  0  0  0  0  0  0  0  0  0  0
    8.7733   -2.2071    1.7641 C   0  0  0  0  0  0  0  0  0  0  0  0
    9.8205   -3.0405    2.1709 C   0  0  0  0  0  0  0  0  0  0  0  0
    9.7889   -3.7257    3.3986 C   0  0  0  0  0  0  0  0  0  0  0  0
   10.8495   -4.5478    3.7728 C   0  0  0  0  0  0  0  0  0  0  0  0
   11.9414   -4.6873    2.9240 C   0  0  0  0  0  0  0  0  0  0  0  0
   11.9668   -4.0036    1.7045 C   0  0  0  0  0  0  0  0  0  0  0  0
   10.9233   -3.1780    1.3067 C   0  0  0  0  0  0  0  0  0  0  0  0
   10.9964   -2.5427    0.1231 N   0  0  0  0  0  0  0  0  0  0  0  0
    9.9836   -1.7454   -0.2565 C   0  0  0  0  0  0  0  0  0  0  0  0
   10.0528   -1.0896   -1.4753 C   0  0  0  0  0  0  0  0  0  0  0  0
    9.0201   -0.2426   -1.9213 C   0  0  0  0  0  0  0  0  0  0  0  0
    9.0793    0.4212   -3.1497 C   0  0  0  0  0  0  0  0  0  0  0  0
    8.0303    1.2540   -3.5564 C   0  0  0  0  0  0  0  0  0  0  0  0
    8.0870    1.9168   -4.7926 C   0  0  0  0  0  0  0  0  0  0  0  0
    7.0463    2.7420   -5.1963 C   0  0  0  0  0  0  0  0  0  0  0  0
    5.9455    2.9071   -4.3641 C   0  0  0  0  0  0  0  0  0  0  0  0
    4.7794    3.0311   -0.9947 C   0  0  0  0  0  0  0  0  0  0  0  0
    3.6451    3.2638   -0.2117 C   0  0  0  0  0  0  0  0  0  0  0  0
    2.3654    2.9495   -0.6912 C   0  0  0  0  0  0  0  0  0  0  0  0
    1.2153    3.1797    0.0821 C   0  0  0  0  0  0  0  0  0  0  0  0
   -0.0674    2.8656   -0.3991 C   0  0  0  0  0  0  0  0  0  0  0  0
   -1.2189    3.0986    0.3731 C   0  0  0  0  0  0  0  0  0  0  0  0
   -2.5027    2.7914   -0.1098 C   0  0  0  0  0  0  0  0  0  0  0  0
   -3.6573    3.0317    0.6595 C   0  0  0  0  0  0  0  0  0  0  0  0
   -6.3421    4.3574    1.4441 C   0  0  0  0  0  0  0  0  0  0  0  0
   -7.4526    4.7055    2.2036 C   0  0  0  0  0  0  0  0  0  0  0  0
   -8.3926    3.7344    2.5184 C   0  0  0  0  0  0  0  0  0  0  0  0
   -8.2258    2.4135    2.0743 C   0  0  0  0  0  0  0  0  0  0  0  0
   -9.1773    1.4365    2.3900 C   0  0  0  0  0  0  0  0  0  0  0  0
   -9.0133    0.1204    1.9501 C   0  0  0  0  0  0  0  0  0  0  0  0
   -9.9483   -0.8908    2.2436 C   0  0  0  0  0  0  0  0  0  0  0  0
   -9.7771   -2.1934    1.8029 C   0  0  0  0  0  0  0  0  0  0  0  0
  -10.6996   -3.1209    2.1099 N   0  0  0  0  0  0  0  0  0  0  0  0
  -10.5286   -4.3843    1.6804 C   0  0  0  0  0  0  0  0  0  0  0  0
  -11.4788   -5.3469    1.9949 C   0  0  0  0  0  0  0  0  0  0  0  0
  -11.3502   -6.6742    1.5742 C   0  0  0  0  0  0  0  0  0  0  0  0
  -10.1410   -8.0871    0.4897 H   0  0  0  0  0  0  0  0  0  0  0  0
   -8.4182   -6.4185   -0.1003 H   0  0  0  0  0  0  0  0  0  0  0  0
   -7.5853   -4.0676    0.0150 H   0  0  0  0  0  0  0  0  0  0  0  0
   -6.8098   -1.7012    0.1685 H   0  0  0  0  0  0  0  0  0  0  0  0
   -6.0317    1.9328   -1.5101 H   0  0  0  0  0  0  0  0  0  0  0  0
   -4.0461    1.4897   -2.8659 H   0  0  0  0  0  0  0  0  0  0  0  0
   -1.5909    1.5598   -3.1586 H   0  0  0  0  0  0  0  0  0  0  0  0
    0.8453    1.6386   -3.4492 H   0  0  0  0  0  0  0  0  0  0  0  0
    3.2827    1.7158   -3.7402 H   0  0  0  0  0  0  0  0  0  0  0  0
    6.9260   -0.5389    0.7013 H   0  0  0  0  0  0  0  0  0  0  0  0
    7.9040   -2.0756    2.4044 H   0  0  0  0  0  0  0  0  0  0  0  0
    8.9375   -3.6211    4.0671 H   0  0  0  0  0  0  0  0  0  0  0  0
   10.8234   -5.0767    4.7220 H   0  0  0  0  0  0  0  0  0  0  0  0
   12.7752   -5.3258    3.2042 H   0  0  0  0  0  0  0  0  0  0  0  0
   12.8243   -4.1180    1.0456 H   0  0  0  0  0  0  0  0  0  0  0  0
   10.9360   -1.2455   -2.0913 H   0  0  0  0  0  0  0  0  0  0  0  0
    9.9467    0.2866   -3.7926 H   0  0  0  0  0  0  0  0  0  0  0  0
    8.9462    1.7925   -5.4483 H   0  0  0  0  0  0  0  0  0  0  0  0
    7.0924    3.2575   -6.1520 H   0  0  0  0  0  0  0  0  0  0  0  0
    5.1388    3.5659   -4.6820 H   0  0  0  0  0  0  0  0  0  0  0  0
    5.7591    3.2819   -0.5924 H   0  0  0  0  0  0  0  0  0  0  0  0
    3.7741    3.6921    0.7796 H   0  0  0  0  0  0  0  0  0  0  0  0
    1.3209    3.6117    1.0756 H   0  0  0  0  0  0  0  0  0  0  0  0
   -1.1132    3.5282    1.3676 H   0  0  0  0  0  0  0  0  0  0  0  0
   -3.5518    3.4524    1.6583 H   0  0  0  0  0  0  0  0  0  0  0  0
   -5.6181    5.1301    1.1895 H   0  0  0  0  0  0  0  0  0  0  0  0
   -7.5850    5.7294    2.5432 H   0  0  0  0  0  0  0  0  0  0  0  0
   -9.2604    4.0142    3.1120 H   0  0  0  0  0  0  0  0  0  0  0  0
  -10.0514    1.7008    2.9814 H   0  0  0  0  0  0  0  0  0  0  0  0
  -10.8350   -0.6610    2.8305 H   0  0  0  0  0  0  0  0  0  0  0  0
  -12.3446   -5.0550    2.5848 H   0  0  0  0  0  0  0  0  0  0  0  0
  -12.1128   -7.4023    1.8382 H   0  0  0  0  0  0  0  0  0  0  0  0
  1  2  4  0
  2  3  4  0
  3  4  4  0
  4  5  4  0
  5  6  4  0
  6  7  4  0
  7  8  4  0
  8  9  4  0
  9 10  4  0
 10 11  1  0
 11 12  4  0
 12 13  4  0
 13 14  4  0
 14 15  4  0
 15 16  4  0
 16 17  4  0
 17 18  4  0
 18 19  4  0
 19 20  4  0
 20 21  1  0
 21 22  4  0
 22 23  4  0
 23 24  4  0
 24 25  4  0
 25 26  4  0
 26 27  4  0
 27 28  4  0
 28 29  4  0
 29 30  4  0
 30 31  4  0
 31 32  4  0
 32 33  4  0
 33 34  4  0
 34 35  4  0
 35 36  4  0
 36 37  4  0
 37 38  4  0
 38 39  4  0
 39 40  4  0
 40 41  4  0
 41 42  4  0
 20 43  4  0
 43 44  4  0
 44 45  4  0
 45 46  4  0
 46 47  4  0
 47 48  4  0
 48 49  4  0
 49 50  4  0
 10 51  4  0
 51 52  4  0
 52 53  4  0
 53 54  4  0
 54 55  4  0
 55 56  4  0
 56 57  4  0
 57 58  4  0
 58 59  4  0
 59 60  4  0
 60 61  4  0
 61 62  4  0
 62  1  4  0
 60  3  4  0
 58  5  4  0
 56  7  4  0
 54  9  4  0
 50 11  4  0
 49 14  4  0
 47 16  4  0
 45 18  4  0
 42 21  4  0
 39 22  4  0
 37 24  4  0
 35 26  4  0
 33 28  4  0
  1 63  1  0
  2 64  1  0
  4 65  1  0
  6 66  1  0
 12 67  1  0
 13 68  1  0
 15 69  1  0
 17 70  1  0
 19 71  1  0
 25 72  1  0
 27 73  1  0
 29 74  1  0
 30 75  1  0
 31 76  1  0
 32 77  1  0
 36 78  1  0
 38 79  1  0
 40 80  1  0
 41 81  1  0
 42 82  1  0
 43 83  1  0
 44 84  1  0
 46 85  1  0
 48 86  1  0
 50 87  1  0
 51 88  1  0
 52 89  1  0
 53 90  1  0
 55 91  1  0
 57 92  1  0
 61 93  1  0
 62 94  1  0
M  END
