
     RDKit          3D

 94107  0  0  0  0  0  0  0  0999 V2000
   -7.9919    6.1675    0.4180 C   0  0  0  0  0  0  0  0  0  0  0  0
   -6.6400    6.0550    0.1145 C   0  0  0  0  0  0  0  0  0  0  0  0
   -6.0724    4.7908   -0.0691 C   0  0  0  0  0  0  0  0  0  0  0  0
   -6.8252    3.6296    0.0429 C   0  0  0  0  0  0  0  0  0  0  0  0
   -6.2342    2.4385   -0.1435 N   0  0  0  0  0  0  0  0  0  0  0  0
   -6.9454    1.2930   -0.0398 C   0  0  0  0  0  0  0  0  0  0  0  0
   -8.3156    1.3245    0.2648 C   0  0  0  0  0  0  0  0  0  0  0  0
   -8.9307    2.5680    0.4585 C   0  0  0  0  0  0  0  0  0  0  0  0
   -8.1894    3.7480    0.3497 C   0  0  0  0  0  0  0  0  0  0  0  0
   -8.7683    5.0166    0.5362 C   0  0  0  0  0  0  0  0  0  0  0  0
   -9.0502    0.1342    0.3709 C   0  0  0  0  0  0  0  0  0  0  0  0
   -8.4715   -1.1068    0.1878 C   0  0  0  0  0  0  0  0  0  0  0  0
   -9.2579   -2.1895    0.3121 N   0  0  0  0  0  0  0  0  0  0  0  0
   -8.7288   -3.4132    0.1468 C   0  0  0  0  0  0  0  0  0  0  0  0
   -9.5378   -4.5351    0.2754 C   0  0  0  0  0  0  0  0  0  0  0  0
   -9.0331   -5.8292    0.1143 C   0  0  0  0  0  0  0  0  0  0  0  0
   -7.6879   -6.0140   -0.1824 C   0  0  0  0  0  0  0  0  0  0  0  0
   -6.8558   -4.9049   -0.3167 C   0  0  0  0  0  0  0  0  0  0  0  0
   -7.3714   -3.6062   -0.1537 C   0  0  0  0  0  0  0  0  0  0  0  0
   -6.5675   -2.4673   -0.2815 C   0  0  0  0  0  0  0  0  0  0  0  0
   -7.1010   -1.1714   -0.1153 C   0  0  0  0  0  0  0  0  0  0  0  0
   -6.3388    0.0358   -0.2342 C   0  0  0  0  0  0  0  0  0  0  0  0
   -4.8995   -0.0167   -0.5702 C   0  0  0  0  0  0  0  0  0  0  0  0
   -4.4801   -0.0877   -1.9048 C   0  0  0  0  0  0  0  0  0  0  0  0
   -3.1207   -0.1313   -2.2227 C   0  0  0  0  0  0  0  0  0  0  0  0
   -2.1467   -0.1017   -1.2135 C   0  0  0  0  0  0  0  0  0  0  0  0
   -0.7762   -0.1381   -1.5182 C   0  0  0  0  0  0  0  0  0  0  0  0
    0.1999   -0.0969   -0.5085 C   0  0  0  0  0  0  0  0  0  0  0  0
    1.5709   -0.1277   -0.8143 C   0  0  0  0  0  0  0  0  0  0  0  0
    2.5480   -0.0817    0.1938 C   0  0  0  0  0  0  0  0  0  0  0  0
    3.9199   -0.1082   -0.1123 C   0  0  0  0  0  0  0  0  0  0  0  0
    4.8958   -0.0556    0.8965 C   0  0  0  0  0  0  0  0  0  0  0  0
    6.3349   -0.0573    0.5561 C   0  0  0  0  0  0  0  0  0  0  0  0
    7.0063    1.1737    0.2585 C   0  0  0  0  0  0  0  0  0  0  0  0
    6.3855    2.4418    0.2668 C   0  0  0  0  0  0  0  0  0  0  0  0
    7.1029    3.6053   -0.0352 C   0  0  0  0  0  0  0  0  0  0  0  0
    6.4998    4.8766   -0.0328 C   0  0  0  0  0  0  0  0  0  0  0  0
    7.2486    6.0109   -0.3385 C   0  0  0  0  0  0  0  0  0  0  0  0
    8.5974    5.8786   -0.6467 C   0  0  0  0  0  0  0  0  0  0  0  0
    9.1892    4.6117   -0.6472 C   0  0  0  0  0  0  0  0  0  0  0  0
    8.4642    3.4658   -0.3457 C   0  0  0  0  0  0  0  0  0  0  0  0
    9.0761    2.2704   -0.3583 N   0  0  0  0  0  0  0  0  0  0  0  0
    8.3727    1.1640   -0.0658 C   0  0  0  0  0  0  0  0  0  0  0  0
    9.0394   -0.0451   -0.0866 C   0  0  0  0  0  0  0  0  0  0  0  0
    8.3970   -1.2569    0.2047 C   0  0  0  0  0  0  0  0  0  0  0  0
    9.1041   -2.4653    0.1767 C   0  0  0  0  0  0  0  0  0  0  0  0
    8.4574   -3.6688    0.4681 C   0  0  0  0  0  0  0  0  0  0  0  0
    9.1324   -4.9030    0.4521 C   0  0  0  0  0  0  0  0  0  0  0  0
    8.4498   -6.0804    0.7488 C   0  0  0  0  0  0  0  0  0  0  0  0
    7.0962   -6.0280    1.0606 C   0  0  0  0  0  0  0  0  0  0  0  0
    6.4329   -4.7973    1.0744 C   0  0  0  0  0  0  0  0  0  0  0  0
    7.0910   -3.6100    0.7830 C   0  0  0  0  0  0  0  0  0  0  0  0
    6.4109   -2.4516    0.8105 N   0  0  0  0  0  0  0  0  0  0  0  0
    7.0312   -1.2827    0.5308 C   0  0  0  0  0  0  0  0  0  0  0  0
    4.4770    0.0125    2.2311 C   0  0  0  0  0  0  0  0  0  0  0  0
    3.1174    0.0378    2.5502 C   0  0  0  0  0  0  0  0  0  0  0  0
    2.1428   -0.0053    1.5420 C   0  0  0  0  0  0  0  0  0  0  0  0
    0.7723    0.0250    1.8477 C   0  0  0  0  0  0  0  0  0  0  0  0
   -0.2045   -0.0196    0.8387 C   0  0  0  0  0  0  0  0  0  0  0  0
   -1.5758    0.0135    1.1437 C   0  0  0  0  0  0  0  0  0  0  0  0
   -2.5525   -0.0264    0.1348 C   0  0  0  0  0  0  0  0  0  0  0  0
   -3.9243    0.0137    0.4398 C   0  0  0  0  0  0  0  0  0  0  0  0
   -8.4402    7.1471    0.5617 H   0  0  0  0  0  0  0  0  0  0  0  0
   -6.0228    6.9444    0.0186 H   0  0  0  0  0  0  0  0  0  0  0  0
   -5.0142    4.7066   -0.3068 H   0  0  0  0  0  0  0  0  0  0  0  0
   -9.9914    2.6184    0.6949 H   0  0  0  0  0  0  0  0  0  0  0  0
   -9.8253    5.1119    0.7734 H   0  0  0  0  0  0  0  0  0  0  0  0
  -10.1127    0.1702    0.6061 H   0  0  0  0  0  0  0  0  0  0  0  0
  -10.5910   -4.3971    0.5081 H   0  0  0  0  0  0  0  0  0  0  0  0
   -9.6935   -6.6858    0.2219 H   0  0  0  0  0  0  0  0  0  0  0  0
   -7.2873   -7.0164   -0.3088 H   0  0  0  0  0  0  0  0  0  0  0  0
   -5.8038   -5.0559   -0.5488 H   0  0  0  0  0  0  0  0  0  0  0  0
   -5.5113   -2.5959   -0.5111 H   0  0  0  0  0  0  0  0  0  0  0  0
   -5.2142   -0.0972   -2.7078 H   0  0  0  0  0  0  0  0  0  0  0  0
   -2.8299   -0.1776   -3.2695 H   0  0  0  0  0  0  0  0  0  0  0  0
   -0.4633   -0.1941   -2.5592 H   0  0  0  0  0  0  0  0  0  0  0  0
    1.8844   -0.1870   -1.8551 H   0  0  0  0  0  0  0  0  0  0  0  0
    4.2395   -0.1735   -1.1512 H   0  0  0  0  0  0  0  0  0  0  0  0
    5.3287    2.5290    0.5123 H   0  0  0  0  0  0  0  0  0  0  0  0
    5.4443    4.9860    0.2070 H   0  0  0  0  0  0  0  0  0  0  0  0
    6.7810    6.9921   -0.3363 H   0  0  0  0  0  0  0  0  0  0  0  0
    9.1932    6.7552   -0.8873 H   0  0  0  0  0  0  0  0  0  0  0  0
   10.2449    4.5153   -0.8894 H   0  0  0  0  0  0  0  0  0  0  0  0
   10.0986   -0.0376   -0.3387 H   0  0  0  0  0  0  0  0  0  0  0  0
   10.1631   -2.4696   -0.0723 H   0  0  0  0  0  0  0  0  0  0  0  0
   10.1913   -4.9509    0.2091 H   0  0  0  0  0  0  0  0  0  0  0  0
    8.9718   -7.0334    0.7366 H   0  0  0  0  0  0  0  0  0  0  0  0
    6.5511   -6.9388    1.2937 H   0  0  0  0  0  0  0  0  0  0  0  0
    5.3737   -4.7618    1.3189 H   0  0  0  0  0  0  0  0  0  0  0  0
    5.2119    0.0402    3.0327 H   0  0  0  0  0  0  0  0  0  0  0  0
    2.8257    0.0879    3.5967 H   0  0  0  0  0  0  0  0  0  0  0  0
    0.4622    0.0859    2.8893 H   0  0  0  0  0  0  0  0  0  0  0  0
   -1.8894    0.0760    2.1843 H   0  0  0  0  0  0  0  0  0  0  0  0
   -4.2442    0.0847    1.4782 H   0  0  0  0  0  0  0  0  0  0  0  0
  1  2  4  0
  2  3  4  0
  3  4  4  0
  4  5  4  0
  5  6  4  0
  6  7  4  0
  7  8  4  0
  8  9  4  0
  9 10  4  0
  7 11  4  0
 11 12  4  0
 12 13  4  0
 13 14  4  0
 14 15  4  0
 15 16  4  0
 16 17  4  0
 17 18  4  0
 18 19  4  0
 19 20  4  0
 20 21  4  0
 21 22  4  0
 22 23  1  0
 23 24  4  0
 24 25  4  0
 25 26  4  0
 26 27  4  0
 27 28  4  0
 28 29  4  0
 29 30  4  0
 30 31  4  0
 31 32  4  0
 32 33  1  0
 33 34  4  0
 34 35  4  0
 35 36  4  0
 36 37  4  0
 37 38  4  0
 38 39  4  0
 39 40  4  0
 40 41  4  0
 41 42  4  0
 42 43  4  0
 43 44  4  0
 44 45  4  0
 45 46  4  0
 46 47  4  0
 47 48  4  0
 48 49  4  0
 49 50  4  0
 50 51  4  0
 51 52  4  0
 52 53  4  0
 53 54  4  0
 32 55  4  0
 55 56  4  0
 56 57  4  0
 57 58  4  0
 58 59  4  0
 59 60  4  0
 60 61  4  0
 61 62  4  0
 10  1  4  0
 21 12  4  0
 62 23  4  0
  9  4  4  0
 19 14  4  0
 61 26  4  0
 22  6  4  0
 59 28  4  0
 57 30  4  0
 54 33  4  0
 43 34  4  0
 54 45  4  0
 41 36  4  0
 52 47  4  0
  1 63  1  0
  2 64  1  0
  3 65  1  0
  8 66  1  0
 10 67  1  0
 11 68  1  0
 15 69  1  0
 16 70  1  0
 17 71  1  0
 18 72  1  0
 20 73  1  0
 24 74  1  0
 25 75  1  0
 27 76  1  0
 29 77  1  0
 31 78  1  0
 35 79  1  0
 37 80  1  0
 38 81  1  0
 39 82  1  0
 40 83  1  0
 44 84  1  0
 46 85  1  0
 48 86  1  0
 49 87  1  0
 50 88  1  0
 51 89  1  0
 55 90  1  0
 56 91  1  0
 58 92  1  0
 60 93  1  0
 62 94  1  0
M  END
