
     RDKit          3D

 90103  0  0  0  0  0  0  0  0999 V2000
    9.5321   -4.4610   -0.3556 C   0  0  0  0  0  0  0  0  0  0  0  0
    8.1825   -4.7520   -0.3507 C   0  0  0  0  0  0  0  0  0  0  0  0
    7.2453   -3.7267   -0.2195 C   0  0  0  0  0  0  0  0  0  0  0  0
    7.6541   -2.3555   -0.1030 C   0  0  0  0  0  0  0  0  0  0  0  0
    9.0369   -2.0546   -0.0760 C   0  0  0  0  0  0  0  0  0  0  0  0
    9.9458   -3.1397   -0.2152 C   0  0  0  0  0  0  0  0  0  0  0  0
    9.4588   -0.7026    0.1016 C   0  0  0  0  0  0  0  0  0  0  0  0
   10.8291   -0.3520    0.2348 C   0  0  0  0  0  0  0  0  0  0  0  0
   11.2623    0.9578    0.4028 C   0  0  0  0  0  0  0  0  0  0  0  0
   10.3320    1.9757    0.4355 C   0  0  0  0  0  0  0  0  0  0  0  0
    8.9721    1.6900    0.3054 C   0  0  0  0  0  0  0  0  0  0  0  0
    8.4958    0.3464    0.1496 C   0  0  0  0  0  0  0  0  0  0  0  0
    7.0939    0.0813    0.0392 C   0  0  0  0  0  0  0  0  0  0  0  0
    6.2278    1.2471   -0.0234 C   0  0  0  0  0  0  0  0  0  0  0  0
    4.7898    1.2163   -0.3540 C   0  0  0  0  0  0  0  0  0  0  0  0
    4.3657    0.9525   -1.6639 C   0  0  0  0  0  0  0  0  0  0  0  0
    3.0067    0.9512   -1.9873 C   0  0  0  0  0  0  0  0  0  0  0  0
    2.0370    1.2233   -1.0108 C   0  0  0  0  0  0  0  0  0  0  0  0
    0.6674    1.2206   -1.3200 C   0  0  0  0  0  0  0  0  0  0  0  0
   -0.3043    1.4909   -0.3423 C   0  0  0  0  0  0  0  0  0  0  0  0
   -1.6743    1.4861   -0.6523 C   0  0  0  0  0  0  0  0  0  0  0  0
   -2.6471    1.7487    0.3256 C   0  0  0  0  0  0  0  0  0  0  0  0
   -4.0178    1.7363    0.0155 C   0  0  0  0  0  0  0  0  0  0  0  0
   -4.9951    1.9716    0.9986 C   0  0  0  0  0  0  0  0  0  0  0  0
   -6.4292    1.9656    0.6468 C   0  0  0  0  0  0  0  0  0  0  0  0
   -7.1795    0.7888    0.2407 C   0  0  0  0  0  0  0  0  0  0  0  0
   -6.7347   -0.5996    0.3149 C   0  0  0  0  0  0  0  0  0  0  0  0
   -5.5642   -1.0326    0.9943 C   0  0  0  0  0  0  0  0  0  0  0  0
   -5.1062   -2.3498    1.0022 C   0  0  0  0  0  0  0  0  0  0  0  0
   -5.8255   -3.3231    0.3426 C   0  0  0  0  0  0  0  0  0  0  0  0
   -7.0202   -2.9891   -0.2885 C   0  0  0  0  0  0  0  0  0  0  0  0
   -7.5001   -1.6363   -0.2902 C   0  0  0  0  0  0  0  0  0  0  0  0
   -8.7497   -1.3541   -0.8916 C   0  0  0  0  0  0  0  0  0  0  0  0
   -9.4372   -2.4346   -1.5092 C   0  0  0  0  0  0  0  0  0  0  0  0
   -8.9436   -3.7358   -1.5253 C   0  0  0  0  0  0  0  0  0  0  0  0
   -7.7394   -4.0115   -0.9083 C   0  0  0  0  0  0  0  0  0  0  0  0
   -9.2694   -0.0254   -0.8428 C   0  0  0  0  0  0  0  0  0  0  0  0
  -10.5633    0.2969   -1.3326 C   0  0  0  0  0  0  0  0  0  0  0  0
  -11.0850    1.5848   -1.3011 C   0  0  0  0  0  0  0  0  0  0  0  0
  -10.3201    2.6090   -0.7826 C   0  0  0  0  0  0  0  0  0  0  0  0
   -9.0394    2.3509   -0.2911 C   0  0  0  0  0  0  0  0  0  0  0  0
   -8.4854    1.0286   -0.2917 C   0  0  0  0  0  0  0  0  0  0  0  0
   -8.3157    3.4300    0.1916 C   0  0  0  0  0  0  0  0  0  0  0  0
   -7.0224    3.2435    0.6338 C   0  0  0  0  0  0  0  0  0  0  0  0
   -4.5717    2.2602    2.3042 C   0  0  0  0  0  0  0  0  0  0  0  0
   -3.2120    2.2831    2.6249 C   0  0  0  0  0  0  0  0  0  0  0  0
   -2.2397    2.0251    1.6469 C   0  0  0  0  0  0  0  0  0  0  0  0
   -0.8695    2.0347    1.9556 C   0  0  0  0  0  0  0  0  0  0  0  0
    0.1034    1.7704    0.9769 C   0  0  0  0  0  0  0  0  0  0  0  0
    1.4741    1.7763    1.2859 C   0  0  0  0  0  0  0  0  0  0  0  0
    2.4462    1.5059    0.3089 C   0  0  0  0  0  0  0  0  0  0  0  0
    3.8172    1.5075    0.6194 C   0  0  0  0  0  0  0  0  0  0  0  0
    6.7460    2.5467    0.1429 C   0  0  0  0  0  0  0  0  0  0  0  0
    8.0957    2.7634    0.3241 C   0  0  0  0  0  0  0  0  0  0  0  0
    6.6819   -1.3193   -0.0041 C   0  0  0  0  0  0  0  0  0  0  0  0
    5.3344   -1.7636    0.0759 C   0  0  0  0  0  0  0  0  0  0  0  0
    4.9424   -3.0981   -0.0267 C   0  0  0  0  0  0  0  0  0  0  0  0
    5.8985   -4.0763   -0.1940 C   0  0  0  0  0  0  0  0  0  0  0  0
   10.2652   -5.2560   -0.4601 H   0  0  0  0  0  0  0  0  0  0  0  0
    7.8684   -5.7888   -0.4469 H   0  0  0  0  0  0  0  0  0  0  0  0
   11.0196   -2.9790   -0.2258 H   0  0  0  0  0  0  0  0  0  0  0  0
   11.6097   -1.1066    0.2241 H   0  0  0  0  0  0  0  0  0  0  0  0
   12.3215    1.1765    0.5045 H   0  0  0  0  0  0  0  0  0  0  0  0
   10.6817    2.9985    0.5590 H   0  0  0  0  0  0  0  0  0  0  0  0
    5.0982    0.7397   -2.4406 H   0  0  0  0  0  0  0  0  0  0  0  0
    2.7129    0.7342   -3.0120 H   0  0  0  0  0  0  0  0  0  0  0  0
    0.3519    1.0023   -2.3389 H   0  0  0  0  0  0  0  0  0  0  0  0
   -1.9905    1.2695   -1.6715 H   0  0  0  0  0  0  0  0  0  0  0  0
   -4.3386    1.5265   -1.0044 H   0  0  0  0  0  0  0  0  0  0  0  0
   -4.9688   -0.3471    1.5832 H   0  0  0  0  0  0  0  0  0  0  0  0
   -4.1912   -2.6031    1.5310 H   0  0  0  0  0  0  0  0  0  0  0  0
   -5.4578   -4.3462    0.3506 H   0  0  0  0  0  0  0  0  0  0  0  0
  -10.3885   -2.2852   -2.0107 H   0  0  0  0  0  0  0  0  0  0  0  0
   -9.5052   -4.5282   -2.0118 H   0  0  0  0  0  0  0  0  0  0  0  0
   -7.3688   -5.0341   -0.9131 H   0  0  0  0  0  0  0  0  0  0  0  0
  -11.2169   -0.4650   -1.7463 H   0  0  0  0  0  0  0  0  0  0  0  0
  -12.0827    1.7818   -1.6831 H   0  0  0  0  0  0  0  0  0  0  0  0
  -10.7340    3.6151   -0.7712 H   0  0  0  0  0  0  0  0  0  0  0  0
   -8.7299    4.4355    0.1930 H   0  0  0  0  0  0  0  0  0  0  0  0
   -6.4489    4.1159    0.9454 H   0  0  0  0  0  0  0  0  0  0  0  0
   -5.3047    2.4572    3.0842 H   0  0  0  0  0  0  0  0  0  0  0  0
   -2.9195    2.5011    3.6495 H   0  0  0  0  0  0  0  0  0  0  0  0
   -0.5552    2.2482    2.9756 H   0  0  0  0  0  0  0  0  0  0  0  0
    1.7908    1.9917    2.3050 H   0  0  0  0  0  0  0  0  0  0  0  0
    4.1400    1.7249    1.6367 H   0  0  0  0  0  0  0  0  0  0  0  0
    6.0822    3.4098    0.0988 H   0  0  0  0  0  0  0  0  0  0  0  0
    8.4514    3.7844    0.4410 H   0  0  0  0  0  0  0  0  0  0  0  0
    4.5223   -1.0728    0.2578 H   0  0  0  0  0  0  0  0  0  0  0  0
    3.8895   -3.3606    0.0323 H   0  0  0  0  0  0  0  0  0  0  0  0
    5.5825   -5.1132   -0.2773 H   0  0  0  0  0  0  0  0  0  0  0  0
  1  2  4  0
  2  3  4  0
  3  4  4  0
  4  5  4  0
  5  6  4  0
  5  7  4  0
  7  8  4  0
  8  9  4  0
  9 10  4  0
 10 11  4  0
 11 12  4  0
 12 13  4  0
 13 14  4  0
 14 15  1  0
 15 16  4  0
 16 17  4  0
 17 18  4  0
 18 19  4  0
 19 20  4  0
 20 21  4  0
 21 22  4  0
 22 23  4  0
 23 24  4  0
 24 25  1  0
 25 26  4  0
 26 27  4  0
 27 28  4  0
 28 29  4  0
 29 30  4  0
 30 31  4  0
 31 32  4  0
 32 33  4  0
 33 34  4  0
 34 35  4  0
 35 36  4  0
 33 37  4  0
 37 38  4  0
 38 39  4  0
 39 40  4  0
 40 41  4  0
 41 42  4  0
 41 43  4  0
 43 44  4  0
 24 45  4  0
 45 46  4  0
 46 47  4  0
 47 48  4  0
 48 49  4  0
 49 50  4  0
 50 51  4  0
 51 52  4  0
 14 53  4  0
 53 54  4  0
 13 55  4  0
 55 56  4  0
 56 57  4  0
 57 58  4  0
  6  1  4  0
 12  7  4  0
 52 15  4  0
 58  3  4  0
 55  4  4  0
 54 11  4  0
 51 18  4  0
 49 20  4  0
 47 22  4  0
 44 25  4  0
 42 26  4  0
 32 27  4  0
 42 37  4  0
 36 31  4  0
  1 59  1  0
  2 60  1  0
  6 61  1  0
  8 62  1  0
  9 63  1  0
 10 64  1  0
 16 65  1  0
 17 66  1  0
 19 67  1  0
 21 68  1  0
 23 69  1  0
 28 70  1  0
 29 71  1  0
 30 72  1  0
 34 73  1  0
 35 74  1  0
 36 75  1  0
 38 76  1  0
 39 77  1  0
 40 78  1  0
 43 79  1  0
 44 80  1  0
 45 81  1  0
 46 82  1  0
 48 83  1  0
 50 84  1  0
 52 85  1  0
 53 86  1  0
 54 87  1  0
 56 88  1  0
 57 89  1  0
 58 90  1  0
M  END
