
     RDKit          3D

 90103  0  0  0  0  0  0  0  0999 V2000
  -12.9388    0.3195   -2.1442 C   0  0  0  0  0  0  0  0  0  0  0  0
  -13.4833    0.5842   -0.9009 C   0  0  0  0  0  0  0  0  0  0  0  0
  -12.6728    0.5778    0.2354 C   0  0  0  0  0  0  0  0  0  0  0  0
  -11.2732    0.2982    0.1328 C   0  0  0  0  0  0  0  0  0  0  0  0
  -10.7018    0.0250   -1.1365 C   0  0  0  0  0  0  0  0  0  0  0  0
  -11.5770    0.0463   -2.2552 C   0  0  0  0  0  0  0  0  0  0  0  0
   -9.2986   -0.2547   -1.2380 C   0  0  0  0  0  0  0  0  0  0  0  0
   -8.6674   -0.5343   -2.4743 C   0  0  0  0  0  0  0  0  0  0  0  0
   -7.3092   -0.8048   -2.5775 C   0  0  0  0  0  0  0  0  0  0  0  0
   -6.5263   -0.8055   -1.4371 C   0  0  0  0  0  0  0  0  0  0  0  0
   -7.0770   -0.5383   -0.1704 C   0  0  0  0  0  0  0  0  0  0  0  0
   -8.4833   -0.2585   -0.0700 C   0  0  0  0  0  0  0  0  0  0  0  0
   -9.0664    0.0162    1.1972 C   0  0  0  0  0  0  0  0  0  0  0  0
   -8.2107   -0.0014    2.3220 C   0  0  0  0  0  0  0  0  0  0  0  0
   -6.8492   -0.2728    2.2250 C   0  0  0  0  0  0  0  0  0  0  0  0
   -6.2629   -0.5434    0.9901 C   0  0  0  0  0  0  0  0  0  0  0  0
   -4.8169   -0.8203    0.9632 C   0  0  0  0  0  0  0  0  0  0  0  0
   -4.3371   -2.1293    1.0923 C   0  0  0  0  0  0  0  0  0  0  0  0
   -2.9649   -2.3896    1.0709 C   0  0  0  0  0  0  0  0  0  0  0  0
   -2.0394   -1.3454    0.9228 C   0  0  0  0  0  0  0  0  0  0  0  0
   -0.6569   -1.5907    0.8991 C   0  0  0  0  0  0  0  0  0  0  0  0
    0.2702   -0.5454    0.7516 C   0  0  0  0  0  0  0  0  0  0  0  0
    1.6531   -0.7917    0.7280 C   0  0  0  0  0  0  0  0  0  0  0  0
    2.5808    0.2522    0.5786 C   0  0  0  0  0  0  0  0  0  0  0  0
    3.9641    0.0046    0.5517 C   0  0  0  0  0  0  0  0  0  0  0  0
    4.8906    1.0476    0.3947 C   0  0  0  0  0  0  0  0  0  0  0  0
    6.3362    0.7684    0.3638 C   0  0  0  0  0  0  0  0  0  0  0  0
    7.0401    0.8484    1.5638 C   0  0  0  0  0  0  0  0  0  0  0  0
    8.4072    0.5897    1.6053 C   0  0  0  0  0  0  0  0  0  0  0  0
    9.1518    0.2367    0.4568 C   0  0  0  0  0  0  0  0  0  0  0  0
   10.5603   -0.0311    0.5039 C   0  0  0  0  0  0  0  0  0  0  0  0
   11.3282    0.0327    1.6974 C   0  0  0  0  0  0  0  0  0  0  0  0
   12.6963   -0.2301    1.7307 C   0  0  0  0  0  0  0  0  0  0  0  0
   13.3553   -0.5694    0.5631 C   0  0  0  0  0  0  0  0  0  0  0  0
   12.6535   -0.6479   -0.6408 C   0  0  0  0  0  0  0  0  0  0  0  0
   11.2484   -0.3803   -0.6863 C   0  0  0  0  0  0  0  0  0  0  0  0
   10.5558   -0.4665   -1.9213 C   0  0  0  0  0  0  0  0  0  0  0  0
   11.3196   -0.8218   -3.0651 C   0  0  0  0  0  0  0  0  0  0  0  0
   12.6876   -1.0802   -3.0098 C   0  0  0  0  0  0  0  0  0  0  0  0
   13.3509   -0.9929   -1.7995 C   0  0  0  0  0  0  0  0  0  0  0  0
    9.1475   -0.1983   -1.9657 C   0  0  0  0  0  0  0  0  0  0  0  0
    8.3987   -0.2670   -3.1657 C   0  0  0  0  0  0  0  0  0  0  0  0
    7.0355   -0.0067   -3.2140 C   0  0  0  0  0  0  0  0  0  0  0  0
    6.3658    0.3335   -2.0526 C   0  0  0  0  0  0  0  0  0  0  0  0
    7.0364    0.4209   -0.8189 C   0  0  0  0  0  0  0  0  0  0  0  0
    8.4479    0.1527   -0.7756 C   0  0  0  0  0  0  0  0  0  0  0  0
    4.4120    2.3577    0.2735 C   0  0  0  0  0  0  0  0  0  0  0  0
    3.0399    2.6196    0.3005 C   0  0  0  0  0  0  0  0  0  0  0  0
    2.1135    1.5765    0.4510 C   0  0  0  0  0  0  0  0  0  0  0  0
    0.7309    1.8227    0.4762 C   0  0  0  0  0  0  0  0  0  0  0  0
   -0.1967    0.7776    0.6242 C   0  0  0  0  0  0  0  0  0  0  0  0
   -1.5799    1.0233    0.6473 C   0  0  0  0  0  0  0  0  0  0  0  0
   -2.5072   -0.0213    0.7951 C   0  0  0  0  0  0  0  0  0  0  0  0
   -3.8908    0.2248    0.8182 C   0  0  0  0  0  0  0  0  0  0  0  0
  -10.4691    0.2968    1.3013 C   0  0  0  0  0  0  0  0  0  0  0  0
  -11.1194    0.5806    2.5319 C   0  0  0  0  0  0  0  0  0  0  0  0
  -12.4832    0.8517    2.6207 C   0  0  0  0  0  0  0  0  0  0  0  0
  -13.2561    0.8497    1.4739 C   0  0  0  0  0  0  0  0  0  0  0  0
  -13.5682    0.3242   -3.0300 H   0  0  0  0  0  0  0  0  0  0  0  0
  -14.5477    0.7958   -0.8276 H   0  0  0  0  0  0  0  0  0  0  0  0
  -11.2133   -0.1529   -3.2587 H   0  0  0  0  0  0  0  0  0  0  0  0
   -9.2260   -0.5488   -3.4049 H   0  0  0  0  0  0  0  0  0  0  0  0
   -6.8640   -1.0139   -3.5464 H   0  0  0  0  0  0  0  0  0  0  0  0
   -5.4660   -1.0207   -1.5552 H   0  0  0  0  0  0  0  0  0  0  0  0
   -8.5835    0.1982    3.3218 H   0  0  0  0  0  0  0  0  0  0  0  0
   -6.2439   -0.2714    3.1299 H   0  0  0  0  0  0  0  0  0  0  0  0
   -5.0358   -2.9558    1.2076 H   0  0  0  0  0  0  0  0  0  0  0  0
   -2.6248   -3.4179    1.1716 H   0  0  0  0  0  0  0  0  0  0  0  0
   -0.2960   -2.6131    0.9968 H   0  0  0  0  0  0  0  0  0  0  0  0
    2.0140   -1.8141    0.8264 H   0  0  0  0  0  0  0  0  0  0  0  0
    4.3328   -1.0158    0.6481 H   0  0  0  0  0  0  0  0  0  0  0  0
    6.5235    1.1128    2.4849 H   0  0  0  0  0  0  0  0  0  0  0  0
    8.8759    0.6740    2.5810 H   0  0  0  0  0  0  0  0  0  0  0  0
   10.8719    0.2930    2.6477 H   0  0  0  0  0  0  0  0  0  0  0  0
   13.2411   -0.1686    2.6688 H   0  0  0  0  0  0  0  0  0  0  0  0
   14.4232   -0.7722    0.6022 H   0  0  0  0  0  0  0  0  0  0  0  0
   10.8595   -0.9076   -4.0448 H   0  0  0  0  0  0  0  0  0  0  0  0
   13.2291   -1.3486   -3.9129 H   0  0  0  0  0  0  0  0  0  0  0  0
   14.4188   -1.1969   -1.7696 H   0  0  0  0  0  0  0  0  0  0  0  0
    8.8652   -0.5289   -4.1102 H   0  0  0  0  0  0  0  0  0  0  0  0
    6.4985   -0.0694   -4.1565 H   0  0  0  0  0  0  0  0  0  0  0  0
    5.2985    0.5323   -2.1280 H   0  0  0  0  0  0  0  0  0  0  0  0
    5.1105    3.1833    0.1512 H   0  0  0  0  0  0  0  0  0  0  0  0
    2.7011    3.6485    0.2009 H   0  0  0  0  0  0  0  0  0  0  0  0
    0.3706    2.8452    0.3775 H   0  0  0  0  0  0  0  0  0  0  0  0
   -1.9415    2.0454    0.5483 H   0  0  0  0  0  0  0  0  0  0  0  0
   -4.2607    1.2445    0.7185 H   0  0  0  0  0  0  0  0  0  0  0  0
  -10.5702    0.5977    3.4685 H   0  0  0  0  0  0  0  0  0  0  0  0
  -12.9359    1.0632    3.5857 H   0  0  0  0  0  0  0  0  0  0  0  0
  -14.3194    1.0625    1.5565 H   0  0  0  0  0  0  0  0  0  0  0  0
  1  2  4  0
  2  3  4  0
  3  4  4  0
  4  5  4  0
  5  6  4  0
  5  7  4  0
  7  8  4  0
  8  9  4  0
  9 10  4  0
 10 11  4  0
 11 12  4  0
 12 13  4  0
 13 14  4  0
 14 15  4  0
 15 16  4  0
 16 17  1  0
 17 18  4  0
 18 19  4  0
 19 20  4  0
 20 21  4  0
 21 22  4  0
 22 23  4  0
 23 24  4  0
 24 25  4  0
 25 26  4  0
 26 27  1  0
 27 28  4  0
 28 29  4  0
 29 30  4  0
 30 31  4  0
 31 32  4  0
 32 33  4  0
 33 34  4  0
 34 35  4  0
 35 36  4  0
 36 37  4  0
 37 38  4  0
 38 39  4  0
 39 40  4  0
 37 41  4  0
 41 42  4  0
 42 43  4  0
 43 44  4  0
 44 45  4  0
 45 46  4  0
 26 47  4  0
 47 48  4  0
 48 49  4  0
 49 50  4  0
 50 51  4  0
 51 52  4  0
 52 53  4  0
 53 54  4  0
 13 55  4  0
 55 56  4  0
 56 57  4  0
 57 58  4  0
  6  1  4  0
 12  7  4  0
 54 17  4  0
 58  3  4  0
 55  4  4  0
 16 11  4  0
 53 20  4  0
 51 22  4  0
 49 24  4  0
 45 27  4  0
 46 30  4  0
 36 31  4  0
 46 41  4  0
 40 35  4  0
  1 59  1  0
  2 60  1  0
  6 61  1  0
  8 62  1  0
  9 63  1  0
 10 64  1  0
 14 65  1  0
 15 66  1  0
 18 67  1  0
 19 68  1  0
 21 69  1  0
 23 70  1  0
 25 71  1  0
 28 72  1  0
 29 73  1  0
 32 74  1  0
 33 75  1  0
 34 76  1  0
 38 77  1  0
 39 78  1  0
 40 79  1  0
 42 80  1  0
 43 81  1  0
 44 82  1  0
 47 83  1  0
 48 84  1  0
 50 85  1  0
 52 86  1  0
 54 87  1  0
 56 88  1  0
 57 89  1  0
 58 90  1  0
M  END
