
     RDKit          3D

 96109  0  0  0  0  0  0  0  0999 V2000
   17.1792   -3.3865   -0.7785 C   0  0  0  0  0  0  0  0  0  0  0  0
   15.8267   -3.3212   -1.1162 C   0  0  0  0  0  0  0  0  0  0  0  0
   14.9954   -2.3330   -0.5640 C   0  0  0  0  0  0  0  0  0  0  0  0
   13.6324   -2.2540   -0.8938 C   0  0  0  0  0  0  0  0  0  0  0  0
   12.8031   -1.2646   -0.3399 C   0  0  0  0  0  0  0  0  0  0  0  0
   11.4417   -1.1802   -0.6648 C   0  0  0  0  0  0  0  0  0  0  0  0
   10.6256   -0.1833   -0.1014 C   0  0  0  0  0  0  0  0  0  0  0  0
    9.2648   -0.0805   -0.4111 C   0  0  0  0  0  0  0  0  0  0  0  0
    8.4852    0.9253    0.1700 C   0  0  0  0  0  0  0  0  0  0  0  0
    7.1125    1.0624   -0.1160 C   0  0  0  0  0  0  0  0  0  0  0  0
    6.3438    2.0778    0.4717 C   0  0  0  0  0  0  0  0  0  0  0  0
    4.9113    2.2191    0.1692 C   0  0  0  0  0  0  0  0  0  0  0  0
    4.3914    3.4282   -0.3119 C   0  0  0  0  0  0  0  0  0  0  0  0
    3.0306    3.5611   -0.6032 C   0  0  0  0  0  0  0  0  0  0  0  0
    2.1493    2.4863   -0.4192 C   0  0  0  0  0  0  0  0  0  0  0  0
    0.7794    2.6038   -0.7069 C   0  0  0  0  0  0  0  0  0  0  0  0
   -0.1029    1.5265   -0.5203 C   0  0  0  0  0  0  0  0  0  0  0  0
   -1.4734    1.6430   -0.8078 C   0  0  0  0  0  0  0  0  0  0  0  0
   -2.3557    0.5659   -0.6211 C   0  0  0  0  0  0  0  0  0  0  0  0
   -3.7277    0.6816   -0.9095 C   0  0  0  0  0  0  0  0  0  0  0  0
   -4.6154   -0.3918   -0.7225 C   0  0  0  0  0  0  0  0  0  0  0  0
   -6.0465   -0.2523   -1.0304 C   0  0  0  0  0  0  0  0  0  0  0  0
   -6.4777    0.1572   -2.2975 C   0  0  0  0  0  0  0  0  0  0  0  0
   -7.8423    0.2869   -2.5840 C   0  0  0  0  0  0  0  0  0  0  0  0
   -8.8163    0.0198   -1.6344 C   0  0  0  0  0  0  0  0  0  0  0  0
  -10.1123    0.1609   -1.9611 N   0  0  0  0  0  0  0  0  0  0  0  0
  -11.0547   -0.0968   -1.0376 C   0  0  0  0  0  0  0  0  0  0  0  0
  -12.3928    0.0495   -1.3749 C   0  0  0  0  0  0  0  0  0  0  0  0
  -13.4308   -0.2017   -0.4603 C   0  0  0  0  0  0  0  0  0  0  0  0
  -14.7797   -0.0474   -0.8211 C   0  0  0  0  0  0  0  0  0  0  0  0
  -15.8150   -0.2987    0.0940 C   0  0  0  0  0  0  0  0  0  0  0  0
  -17.1636   -0.1446   -0.2662 C   0  0  0  0  0  0  0  0  0  0  0  0
  -18.1815   -0.3980    0.6542 C   0  0  0  0  0  0  0  0  0  0  0  0
  -17.8644   -0.8082    1.9454 C   0  0  0  0  0  0  0  0  0  0  0  0
  -16.5289   -0.9659    2.3185 C   0  0  0  0  0  0  0  0  0  0  0  0
  -15.4932   -0.7148    1.4036 C   0  0  0  0  0  0  0  0  0  0  0  0
  -14.1442   -0.8686    1.7632 C   0  0  0  0  0  0  0  0  0  0  0  0
  -13.1103   -0.6167    0.8458 C   0  0  0  0  0  0  0  0  0  0  0  0
  -11.7616   -0.7681    1.1980 C   0  0  0  0  0  0  0  0  0  0  0  0
  -10.7392   -0.5115    0.2672 C   0  0  0  0  0  0  0  0  0  0  0  0
   -9.3869   -0.6561    0.5968 C   0  0  0  0  0  0  0  0  0  0  0  0
   -8.3982   -0.3913   -0.3571 C   0  0  0  0  0  0  0  0  0  0  0  0
   -7.0267   -0.5249   -0.0648 C   0  0  0  0  0  0  0  0  0  0  0  0
   -4.0964   -1.5987   -0.2351 C   0  0  0  0  0  0  0  0  0  0  0  0
   -2.7355   -1.7312    0.0551 C   0  0  0  0  0  0  0  0  0  0  0  0
   -1.8543   -0.6571   -0.1331 C   0  0  0  0  0  0  0  0  0  0  0  0
   -0.4845   -0.7744    0.1539 C   0  0  0  0  0  0  0  0  0  0  0  0
    0.3974    0.3028   -0.0340 C   0  0  0  0  0  0  0  0  0  0  0  0
    1.7677    0.1858    0.2531 C   0  0  0  0  0  0  0  0  0  0  0  0
    2.6509    1.2622    0.0656 C   0  0  0  0  0  0  0  0  0  0  0  0
    4.0235    1.1452    0.3525 C   0  0  0  0  0  0  0  0  0  0  0  0
    6.9879    2.9523    1.3545 C   0  0  0  0  0  0  0  0  0  0  0  0
    8.3525    2.8112    1.6372 C   0  0  0  0  0  0  0  0  0  0  0  0
    9.1182    1.8104    1.0596 C   0  0  0  0  0  0  0  0  0  0  0  0
   10.4242    1.7198    1.3642 N   0  0  0  0  0  0  0  0  0  0  0  0
   11.1646    0.7493    0.8009 C   0  0  0  0  0  0  0  0  0  0  0  0
   12.5131    0.6559    1.1151 C   0  0  0  0  0  0  0  0  0  0  0  0
   13.3471   -0.3327    0.5636 C   0  0  0  0  0  0  0  0  0  0  0  0
   14.7103   -0.4107    0.8942 C   0  0  0  0  0  0  0  0  0  0  0  0
   15.5417   -1.3989    0.3421 C   0  0  0  0  0  0  0  0  0  0  0  0
   16.9046   -1.4778    0.6719 C   0  0  0  0  0  0  0  0  0  0  0  0
   17.7177   -2.4656    0.1147 C   0  0  0  0  0  0  0  0  0  0  0  0
   17.8108   -4.1565   -1.2135 H   0  0  0  0  0  0  0  0  0  0  0  0
   15.4247   -4.0502   -1.8163 H   0  0  0  0  0  0  0  0  0  0  0  0
   13.2116   -2.9746   -1.5927 H   0  0  0  0  0  0  0  0  0  0  0  0
   11.0105   -1.8955   -1.3624 H   0  0  0  0  0  0  0  0  0  0  0  0
    8.8114   -0.7841   -1.1053 H   0  0  0  0  0  0  0  0  0  0  0  0
    6.6404    0.3751   -0.8165 H   0  0  0  0  0  0  0  0  0  0  0  0
    5.0484    4.2801   -0.4765 H   0  0  0  0  0  0  0  0  0  0  0  0
    2.6661    4.5150   -0.9783 H   0  0  0  0  0  0  0  0  0  0  0  0
    0.3943    3.5506   -1.0814 H   0  0  0  0  0  0  0  0  0  0  0  0
   -1.8603    2.5888   -1.1835 H   0  0  0  0  0  0  0  0  0  0  0  0
   -4.1161    1.6305   -1.2774 H   0  0  0  0  0  0  0  0  0  0  0  0
   -5.7547    0.3691   -3.0830 H   0  0  0  0  0  0  0  0  0  0  0  0
   -8.1508    0.6030   -3.5778 H   0  0  0  0  0  0  0  0  0  0  0  0
  -12.6280    0.3710   -2.3877 H   0  0  0  0  0  0  0  0  0  0  0  0
  -15.0283    0.2739   -1.8314 H   0  0  0  0  0  0  0  0  0  0  0  0
  -17.4314    0.1753   -1.2708 H   0  0  0  0  0  0  0  0  0  0  0  0
  -19.2207   -0.2746    0.3614 H   0  0  0  0  0  0  0  0  0  0  0  0
  -18.6557   -1.0060    2.6635 H   0  0  0  0  0  0  0  0  0  0  0  0
  -16.3019   -1.2872    3.3325 H   0  0  0  0  0  0  0  0  0  0  0  0
  -13.8964   -1.1895    2.7734 H   0  0  0  0  0  0  0  0  0  0  0  0
  -11.5021   -1.0884    2.2052 H   0  0  0  0  0  0  0  0  0  0  0  0
   -9.1033   -0.9748    1.5970 H   0  0  0  0  0  0  0  0  0  0  0  0
   -6.7196   -0.8341    0.9331 H   0  0  0  0  0  0  0  0  0  0  0  0
   -4.7496   -2.4568   -0.0891 H   0  0  0  0  0  0  0  0  0  0  0  0
   -2.3697   -2.6857    0.4273 H   0  0  0  0  0  0  0  0  0  0  0  0
   -0.0998   -1.7205    0.5302 H   0  0  0  0  0  0  0  0  0  0  0  0
    2.1538   -0.7598    0.6297 H   0  0  0  0  0  0  0  0  0  0  0  0
    4.4072    0.2019    0.7386 H   0  0  0  0  0  0  0  0  0  0  0  0
    6.4309    3.7492    1.8437 H   0  0  0  0  0  0  0  0  0  0  0  0
    8.8284    3.5018    2.3296 H   0  0  0  0  0  0  0  0  0  0  0  0
   12.9223    1.3822    1.8148 H   0  0  0  0  0  0  0  0  0  0  0  0
   15.1315    0.3101    1.5933 H   0  0  0  0  0  0  0  0  0  0  0  0
   17.3442   -0.7670    1.3683 H   0  0  0  0  0  0  0  0  0  0  0  0
   18.7706   -2.5145    0.3792 H   0  0  0  0  0  0  0  0  0  0  0  0
  1  2  4  0
  2  3  4  0
  3  4  4  0
  4  5  4  0
  5  6  4  0
  6  7  4  0
  7  8  4  0
  8  9  4  0
  9 10  4  0
 10 11  4  0
 11 12  1  0
 12 13  4  0
 13 14  4  0
 14 15  4  0
 15 16  4  0
 16 17  4  0
 17 18  4  0
 18 19  4  0
 19 20  4  0
 20 21  4  0
 21 22  1  0
 22 23  4  0
 23 24  4  0
 24 25  4  0
 25 26  4  0
 26 27  4  0
 27 28  4  0
 28 29  4  0
 29 30  4  0
 30 31  4  0
 31 32  4  0
 32 33  4  0
 33 34  4  0
 34 35  4  0
 35 36  4  0
 36 37  4  0
 37 38  4  0
 38 39  4  0
 39 40  4  0
 40 41  4  0
 41 42  4  0
 42 43  4  0
 21 44  4  0
 44 45  4  0
 45 46  4  0
 46 47  4  0
 47 48  4  0
 48 49  4  0
 49 50  4  0
 50 51  4  0
 11 52  4  0
 52 53  4  0
 53 54  4  0
 54 55  4  0
 55 56  4  0
 56 57  4  0
 57 58  4  0
 58 59  4  0
 59 60  4  0
 60 61  4  0
 61 62  4  0
 62  1  4  0
 60  3  4  0
 58  5  4  0
 56  7  4  0
 54  9  4  0
 51 12  4  0
 50 15  4  0
 48 17  4  0
 46 19  4  0
 43 22  4  0
 42 25  4  0
 40 27  4  0
 38 29  4  0
 36 31  4  0
  1 63  1  0
  2 64  1  0
  4 65  1  0
  6 66  1  0
  8 67  1  0
 10 68  1  0
 13 69  1  0
 14 70  1  0
 16 71  1  0
 18 72  1  0
 20 73  1  0
 23 74  1  0
 24 75  1  0
 28 76  1  0
 30 77  1  0
 32 78  1  0
 33 79  1  0
 34 80  1  0
 35 81  1  0
 37 82  1  0
 39 83  1  0
 41 84  1  0
 43 85  1  0
 44 86  1  0
 45 87  1  0
 47 88  1  0
 49 89  1  0
 51 90  1  0
 52 91  1  0
 53 92  1  0
 57 93  1  0
 59 94  1  0
 61 95  1  0
 62 96  1  0
M  END
