
     RDKit          3D

 96109  0  0  0  0  0  0  0  0999 V2000
    8.0327   -1.2496    6.9318 C   0  0  0  0  0  0  0  0  0  0  0  0
    9.3974   -1.3035    6.6738 C   0  0  0  0  0  0  0  0  0  0  0  0
    9.8516   -1.4563    5.3602 C   0  0  0  0  0  0  0  0  0  0  0  0
    8.9734   -1.5575    4.2891 C   0  0  0  0  0  0  0  0  0  0  0  0
    9.4629   -1.7034    3.0450 N   0  0  0  0  0  0  0  0  0  0  0  0
    8.6107   -1.8012    2.0099 C   0  0  0  0  0  0  0  0  0  0  0  0
    9.1172   -1.9514    0.7265 C   0  0  0  0  0  0  0  0  0  0  0  0
    8.2859   -2.0560   -0.4031 C   0  0  0  0  0  0  0  0  0  0  0  0
    8.8134   -2.2065   -1.6950 C   0  0  0  0  0  0  0  0  0  0  0  0
    7.9833   -2.3044   -2.8249 C   0  0  0  0  0  0  0  0  0  0  0  0
    8.5462   -2.4557   -4.1012 C   0  0  0  0  0  0  0  0  0  0  0  0
    7.7409   -2.5521   -5.2319 C   0  0  0  0  0  0  0  0  0  0  0  0
    6.3579   -2.4938   -5.1007 C   0  0  0  0  0  0  0  0  0  0  0  0
    5.7559   -2.3407   -3.8386 C   0  0  0  0  0  0  0  0  0  0  0  0
    4.2873   -2.2674   -3.7736 C   0  0  0  0  0  0  0  0  0  0  0  0
    3.5070   -3.4258   -3.8644 C   0  0  0  0  0  0  0  0  0  0  0  0
    2.1137   -3.3527   -3.7911 C   0  0  0  0  0  0  0  0  0  0  0  0
    1.4672   -2.1179   -3.6266 C   0  0  0  0  0  0  0  0  0  0  0  0
    0.0678   -2.0269   -3.5465 C   0  0  0  0  0  0  0  0  0  0  0  0
   -0.5779   -0.7898   -3.3794 C   0  0  0  0  0  0  0  0  0  0  0  0
   -1.9779   -0.6977   -3.2982 C   0  0  0  0  0  0  0  0  0  0  0  0
   -2.6232    0.5392   -3.1317 C   0  0  0  0  0  0  0  0  0  0  0  0
   -4.0238    0.6317   -3.0498 C   0  0  0  0  0  0  0  0  0  0  0  0
   -4.6664    1.8685   -2.8819 C   0  0  0  0  0  0  0  0  0  0  0  0
   -6.1332    1.9473   -2.7937 C   0  0  0  0  0  0  0  0  0  0  0  0
   -6.8690    1.9851   -3.9922 C   0  0  0  0  0  0  0  0  0  0  0  0
   -8.2571    2.0678   -3.9775 C   0  0  0  0  0  0  0  0  0  0  0  0
   -8.9330    2.1147   -2.7619 C   0  0  0  0  0  0  0  0  0  0  0  0
   -8.2345    2.0776   -1.5458 C   0  0  0  0  0  0  0  0  0  0  0  0
   -8.9355    2.1260   -0.3287 C   0  0  0  0  0  0  0  0  0  0  0  0
   -8.2708    2.0902    0.9067 C   0  0  0  0  0  0  0  0  0  0  0  0
   -8.9731    2.1412    2.1244 C   0  0  0  0  0  0  0  0  0  0  0  0
   -8.3305    2.1077    3.3541 C   0  0  0  0  0  0  0  0  0  0  0  0
   -9.0632    2.1611    4.4801 N   0  0  0  0  0  0  0  0  0  0  0  0
   -8.4410    2.1293    5.6719 C   0  0  0  0  0  0  0  0  0  0  0  0
   -9.1951    2.1846    6.8366 C   0  0  0  0  0  0  0  0  0  0  0  0
   -8.6001    2.1556    8.1017 C   0  0  0  0  0  0  0  0  0  0  0  0
   -7.2174    2.0692    8.2140 C   0  0  0  0  0  0  0  0  0  0  0  0
   -6.4367    2.0122    7.0615 C   0  0  0  0  0  0  0  0  0  0  0  0
   -7.0414    2.0417    5.7917 C   0  0  0  0  0  0  0  0  0  0  0  0
   -6.2892    1.9864    4.6134 C   0  0  0  0  0  0  0  0  0  0  0  0
   -6.9284    2.0186    3.3688 C   0  0  0  0  0  0  0  0  0  0  0  0
   -6.2083    1.9651    2.1620 C   0  0  0  0  0  0  0  0  0  0  0  0
   -6.8700    2.0010    0.9258 C   0  0  0  0  0  0  0  0  0  0  0  0
   -6.1676    1.9509   -0.2908 C   0  0  0  0  0  0  0  0  0  0  0  0
   -6.8214    1.9911   -1.5459 C   0  0  0  0  0  0  0  0  0  0  0  0
   -3.8833    3.0263   -2.8023 C   0  0  0  0  0  0  0  0  0  0  0  0
   -2.4908    2.9502   -2.8800 C   0  0  0  0  0  0  0  0  0  0  0  0
   -1.8480    1.7139   -3.0444 C   0  0  0  0  0  0  0  0  0  0  0  0
   -0.4489    1.6217   -3.1245 C   0  0  0  0  0  0  0  0  0  0  0  0
    0.1954    0.3844   -3.2910 C   0  0  0  0  0  0  0  0  0  0  0  0
    1.5950    0.2938   -3.3717 C   0  0  0  0  0  0  0  0  0  0  0  0
    2.2400   -0.9421   -3.5390 C   0  0  0  0  0  0  0  0  0  0  0  0
    3.6399   -1.0311   -3.6184 C   0  0  0  0  0  0  0  0  0  0  0  0
    6.5767   -2.2497   -2.6760 C   0  0  0  0  0  0  0  0  0  0  0  0
    6.0620   -2.1092   -1.3644 C   0  0  0  0  0  0  0  0  0  0  0  0
    6.8933   -2.0090   -0.2356 C   0  0  0  0  0  0  0  0  0  0  0  0
    6.3681   -1.8610    1.0567 C   0  0  0  0  0  0  0  0  0  0  0  0
    7.2161   -1.7564    2.1734 C   0  0  0  0  0  0  0  0  0  0  0  0
    6.7152   -1.6048    3.4716 C   0  0  0  0  0  0  0  0  0  0  0  0
    7.5927   -1.5023    4.5564 C   0  0  0  0  0  0  0  0  0  0  0  0
    7.1294   -1.3486    5.8758 C   0  0  0  0  0  0  0  0  0  0  0  0
    7.6729   -1.1309    7.9506 H   0  0  0  0  0  0  0  0  0  0  0  0
   10.1129   -1.2274    7.4885 H   0  0  0  0  0  0  0  0  0  0  0  0
   10.9207   -1.4978    5.1654 H   0  0  0  0  0  0  0  0  0  0  0  0
   10.1985   -1.9862    0.6091 H   0  0  0  0  0  0  0  0  0  0  0  0
    9.8943   -2.2468   -1.8228 H   0  0  0  0  0  0  0  0  0  0  0  0
    9.6265   -2.5000   -4.2250 H   0  0  0  0  0  0  0  0  0  0  0  0
    8.1911   -2.6681   -6.2143 H   0  0  0  0  0  0  0  0  0  0  0  0
    5.7382   -2.5605   -5.9933 H   0  0  0  0  0  0  0  0  0  0  0  0
    3.9837   -4.3966   -3.9859 H   0  0  0  0  0  0  0  0  0  0  0  0
    1.5371   -4.2724   -3.8620 H   0  0  0  0  0  0  0  0  0  0  0  0
   -0.5287   -2.9349   -3.6152 H   0  0  0  0  0  0  0  0  0  0  0  0
   -2.5759   -1.6049   -3.3668 H   0  0  0  0  0  0  0  0  0  0  0  0
   -4.6296   -0.2713   -3.1122 H   0  0  0  0  0  0  0  0  0  0  0  0
   -6.3505    1.9534   -4.9491 H   0  0  0  0  0  0  0  0  0  0  0  0
   -8.8114    2.0976   -4.9118 H   0  0  0  0  0  0  0  0  0  0  0  0
  -10.0193    2.1806   -2.7708 H   0  0  0  0  0  0  0  0  0  0  0  0
  -10.0226    2.1936   -0.3419 H   0  0  0  0  0  0  0  0  0  0  0  0
  -10.0592    2.2101    2.1219 H   0  0  0  0  0  0  0  0  0  0  0  0
  -10.2775    2.2526    6.7564 H   0  0  0  0  0  0  0  0  0  0  0  0
   -9.2208    2.2009    8.9929 H   0  0  0  0  0  0  0  0  0  0  0  0
   -6.7487    2.0465    9.1944 H   0  0  0  0  0  0  0  0  0  0  0  0
   -5.3556    1.9450    7.1568 H   0  0  0  0  0  0  0  0  0  0  0  0
   -5.2052    1.9189    4.6650 H   0  0  0  0  0  0  0  0  0  0  0  0
   -5.1224    1.8959    2.1876 H   0  0  0  0  0  0  0  0  0  0  0  0
   -5.0814    1.8778   -0.2573 H   0  0  0  0  0  0  0  0  0  0  0  0
   -4.3580    3.9975   -2.6757 H   0  0  0  0  0  0  0  0  0  0  0  0
   -1.9113    3.8683   -2.8124 H   0  0  0  0  0  0  0  0  0  0  0  0
    0.1492    2.5288   -3.0568 H   0  0  0  0  0  0  0  0  0  0  0  0
    2.1931    1.2010   -3.3026 H   0  0  0  0  0  0  0  0  0  0  0  0
    4.2431   -0.1263   -3.5533 H   0  0  0  0  0  0  0  0  0  0  0  0
    4.9837   -2.0776   -1.2145 H   0  0  0  0  0  0  0  0  0  0  0  0
    5.2892   -1.8245    1.1966 H   0  0  0  0  0  0  0  0  0  0  0  0
    5.6414   -1.5662    3.6379 H   0  0  0  0  0  0  0  0  0  0  0  0
    6.0632   -1.3056    6.0855 H   0  0  0  0  0  0  0  0  0  0  0  0
  1  2  4  0
  2  3  4  0
  3  4  4  0
  4  5  4  0
  5  6  4  0
  6  7  4  0
  7  8  4  0
  8  9  4  0
  9 10  4  0
 10 11  4  0
 11 12  4  0
 12 13  4  0
 13 14  4  0
 14 15  1  0
 15 16  4  0
 16 17  4  0
 17 18  4  0
 18 19  4  0
 19 20  4  0
 20 21  4  0
 21 22  4  0
 22 23  4  0
 23 24  4  0
 24 25  1  0
 25 26  4  0
 26 27  4  0
 27 28  4  0
 28 29  4  0
 29 30  4  0
 30 31  4  0
 31 32  4  0
 32 33  4  0
 33 34  4  0
 34 35  4  0
 35 36  4  0
 36 37  4  0
 37 38  4  0
 38 39  4  0
 39 40  4  0
 40 41  4  0
 41 42  4  0
 42 43  4  0
 43 44  4  0
 44 45  4  0
 45 46  4  0
 24 47  4  0
 47 48  4  0
 48 49  4  0
 49 50  4  0
 50 51  4  0
 51 52  4  0
 52 53  4  0
 53 54  4  0
 14 55  4  0
 55 56  4  0
 56 57  4  0
 57 58  4  0
 58 59  4  0
 59 60  4  0
 60 61  4  0
 61 62  4  0
 62  1  4  0
 61  4  4  0
 59  6  4  0
 57  8  4  0
 55 10  4  0
 54 15  4  0
 53 18  4  0
 51 20  4  0
 49 22  4  0
 46 25  4  0
 46 29  4  0
 44 31  4  0
 42 33  4  0
 40 35  4  0
  1 63  1  0
  2 64  1  0
  3 65  1  0
  7 66  1  0
  9 67  1  0
 11 68  1  0
 12 69  1  0
 13 70  1  0
 16 71  1  0
 17 72  1  0
 19 73  1  0
 21 74  1  0
 23 75  1  0
 26 76  1  0
 27 77  1  0
 28 78  1  0
 30 79  1  0
 32 80  1  0
 36 81  1  0
 37 82  1  0
 38 83  1  0
 39 84  1  0
 41 85  1  0
 43 86  1  0
 45 87  1  0
 47 88  1  0
 48 89  1  0
 50 90  1  0
 52 91  1  0
 54 92  1  0
 56 93  1  0
 58 94  1  0
 60 95  1  0
 62 96  1  0
M  END
