
     RDKit          3D

 96109  0  0  0  0  0  0  0  0999 V2000
   10.9532    6.6543    0.9382 C   0  0  0  0  0  0  0  0  0  0  0  0
   11.2306    5.3493    1.3481 C   0  0  0  0  0  0  0  0  0  0  0  0
   10.3217    4.3084    1.0959 C   0  0  0  0  0  0  0  0  0  0  0  0
   10.5858    2.9896    1.5018 C   0  0  0  0  0  0  0  0  0  0  0  0
    9.6752    1.9502    1.2473 C   0  0  0  0  0  0  0  0  0  0  0  0
    9.9314    0.6310    1.6491 C   0  0  0  0  0  0  0  0  0  0  0  0
    9.0084   -0.3969    1.3832 C   0  0  0  0  0  0  0  0  0  0  0  0
    9.2366   -1.7204    1.7714 C   0  0  0  0  0  0  0  0  0  0  0  0
    8.2944   -2.7158    1.4861 C   0  0  0  0  0  0  0  0  0  0  0  0
    8.5210   -4.0449    1.8778 C   0  0  0  0  0  0  0  0  0  0  0  0
    7.5862   -5.0308    1.5928 C   0  0  0  0  0  0  0  0  0  0  0  0
    6.4215   -4.6903    0.9149 C   0  0  0  0  0  0  0  0  0  0  0  0
    6.1717   -3.3604    0.5122 C   0  0  0  0  0  0  0  0  0  0  0  0
    4.9151   -3.0658   -0.2115 C   0  0  0  0  0  0  0  0  0  0  0  0
    4.9325   -2.5101   -1.4981 C   0  0  0  0  0  0  0  0  0  0  0  0
    3.7448   -2.2486   -2.1870 C   0  0  0  0  0  0  0  0  0  0  0  0
    2.5020   -2.5378   -1.6073 C   0  0  0  0  0  0  0  0  0  0  0  0
    1.2999   -2.2813   -2.2868 C   0  0  0  0  0  0  0  0  0  0  0  0
    0.0544   -2.5673   -1.7037 C   0  0  0  0  0  0  0  0  0  0  0  0
   -1.1487   -2.3103   -2.3824 C   0  0  0  0  0  0  0  0  0  0  0  0
   -2.3944   -2.5937   -1.7982 C   0  0  0  0  0  0  0  0  0  0  0  0
   -3.5992   -2.3361   -2.4769 C   0  0  0  0  0  0  0  0  0  0  0  0
   -4.8483   -2.6134   -1.8946 C   0  0  0  0  0  0  0  0  0  0  0  0
   -6.1018   -2.3566   -2.6339 C   0  0  0  0  0  0  0  0  0  0  0  0
   -7.0666   -1.4422   -2.1613 C   0  0  0  0  0  0  0  0  0  0  0  0
   -6.8810   -0.7508   -1.0121 N   0  0  0  0  0  0  0  0  0  0  0  0
   -7.8088    0.1196   -0.5798 C   0  0  0  0  0  0  0  0  0  0  0  0
   -7.5921    0.8172    0.6008 C   0  0  0  0  0  0  0  0  0  0  0  0
   -8.5223    1.7411    1.1108 C   0  0  0  0  0  0  0  0  0  0  0  0
   -8.2861    2.4387    2.3076 C   0  0  0  0  0  0  0  0  0  0  0  0
   -9.2176    3.3601    2.8147 C   0  0  0  0  0  0  0  0  0  0  0  0
   -8.9825    4.0577    4.0112 C   0  0  0  0  0  0  0  0  0  0  0  0
   -9.9182    4.9696    4.5022 C   0  0  0  0  0  0  0  0  0  0  0  0
  -11.1001    5.1961    3.8040 C   0  0  0  0  0  0  0  0  0  0  0  0
  -11.3482    4.5111    2.6135 C   0  0  0  0  0  0  0  0  0  0  0  0
  -10.4164    3.5901    2.1064 C   0  0  0  0  0  0  0  0  0  0  0  0
  -10.6511    2.8930    0.9097 C   0  0  0  0  0  0  0  0  0  0  0  0
   -9.7176    1.9718    0.4049 C   0  0  0  0  0  0  0  0  0  0  0  0
   -9.9452    1.2729   -0.7891 C   0  0  0  0  0  0  0  0  0  0  0  0
   -8.9998    0.3540   -1.2798 C   0  0  0  0  0  0  0  0  0  0  0  0
   -9.2023   -0.3537   -2.4677 C   0  0  0  0  0  0  0  0  0  0  0  0
   -8.2393   -1.2595   -2.9264 C   0  0  0  0  0  0  0  0  0  0  0  0
   -8.4410   -1.9666   -4.1227 C   0  0  0  0  0  0  0  0  0  0  0  0
   -7.4852   -2.8639   -4.5789 C   0  0  0  0  0  0  0  0  0  0  0  0
   -6.3246   -3.0567   -3.8394 C   0  0  0  0  0  0  0  0  0  0  0  0
   -4.8679   -3.1589   -0.6043 C   0  0  0  0  0  0  0  0  0  0  0  0
   -3.6801   -3.4236    0.0830 C   0  0  0  0  0  0  0  0  0  0  0  0
   -2.4368   -3.1466   -0.5026 C   0  0  0  0  0  0  0  0  0  0  0  0
   -1.2343   -3.4049    0.1754 C   0  0  0  0  0  0  0  0  0  0  0  0
    0.0111   -3.1219   -0.4097 C   0  0  0  0  0  0  0  0  0  0  0  0
    1.2141   -3.3785    0.2695 C   0  0  0  0  0  0  0  0  0  0  0  0
    2.4600   -3.0944   -0.3135 C   0  0  0  0  0  0  0  0  0  0  0  0
    3.6650   -3.3507    0.3660 C   0  0  0  0  0  0  0  0  0  0  0  0
    7.1164   -2.3516    0.7979 C   0  0  0  0  0  0  0  0  0  0  0  0
    6.9057   -1.0664    0.4306 N   0  0  0  0  0  0  0  0  0  0  0  0
    7.8127   -0.1167    0.7093 C   0  0  0  0  0  0  0  0  0  0  0  0
    7.5664    1.1916    0.3182 C   0  0  0  0  0  0  0  0  0  0  0  0
    8.4737    2.2348    0.5723 C   0  0  0  0  0  0  0  0  0  0  0  0
    8.2075    3.5533    0.1669 C   0  0  0  0  0  0  0  0  0  0  0  0
    9.1162    4.5939    0.4197 C   0  0  0  0  0  0  0  0  0  0  0  0
    8.8514    5.9124    0.0139 C   0  0  0  0  0  0  0  0  0  0  0  0
    9.7647    6.9356    0.2717 C   0  0  0  0  0  0  0  0  0  0  0  0
   11.6656    7.4500    1.1399 H   0  0  0  0  0  0  0  0  0  0  0  0
   12.1651    5.1501    1.8678 H   0  0  0  0  0  0  0  0  0  0  0  0
   11.5154    2.7699    2.0236 H   0  0  0  0  0  0  0  0  0  0  0  0
   10.8564    0.3987    2.1728 H   0  0  0  0  0  0  0  0  0  0  0  0
   10.1528   -1.9762    2.2988 H   0  0  0  0  0  0  0  0  0  0  0  0
    9.4309   -4.3189    2.4075 H   0  0  0  0  0  0  0  0  0  0  0  0
    7.7640   -6.0601    1.8926 H   0  0  0  0  0  0  0  0  0  0  0  0
    5.6993   -5.4718    0.6835 H   0  0  0  0  0  0  0  0  0  0  0  0
    5.8817   -2.2660   -1.9718 H   0  0  0  0  0  0  0  0  0  0  0  0
    3.8027   -1.8110   -3.1809 H   0  0  0  0  0  0  0  0  0  0  0  0
    1.3357   -1.8499   -3.2855 H   0  0  0  0  0  0  0  0  0  0  0  0
   -1.1158   -1.8798   -3.3816 H   0  0  0  0  0  0  0  0  0  0  0  0
   -3.5680   -1.8999   -3.4740 H   0  0  0  0  0  0  0  0  0  0  0  0
   -6.6630    0.6297    1.1360 H   0  0  0  0  0  0  0  0  0  0  0  0
   -7.3609    2.2611    2.8537 H   0  0  0  0  0  0  0  0  0  0  0  0
   -8.0644    3.8943    4.5714 H   0  0  0  0  0  0  0  0  0  0  0  0
   -9.7228    5.5019    5.4295 H   0  0  0  0  0  0  0  0  0  0  0  0
  -11.8300    5.9058    4.1849 H   0  0  0  0  0  0  0  0  0  0  0  0
  -12.2780    4.7021    2.0824 H   0  0  0  0  0  0  0  0  0  0  0  0
  -11.5756    3.0710    0.3634 H   0  0  0  0  0  0  0  0  0  0  0  0
  -10.8654    1.4437   -1.3444 H   0  0  0  0  0  0  0  0  0  0  0  0
  -10.1143   -0.1966   -3.0391 H   0  0  0  0  0  0  0  0  0  0  0  0
   -9.3477   -1.8209   -4.7060 H   0  0  0  0  0  0  0  0  0  0  0  0
   -7.6428   -3.4134   -5.5032 H   0  0  0  0  0  0  0  0  0  0  0  0
   -5.5837   -3.7702   -4.1966 H   0  0  0  0  0  0  0  0  0  0  0  0
   -5.8185   -3.3760   -0.1208 H   0  0  0  0  0  0  0  0  0  0  0  0
   -3.7380   -3.8450    1.0839 H   0  0  0  0  0  0  0  0  0  0  0  0
   -1.2687   -3.8312    1.1762 H   0  0  0  0  0  0  0  0  0  0  0  0
    1.1790   -3.8039    1.2707 H   0  0  0  0  0  0  0  0  0  0  0  0
    3.6311   -3.7692    1.3706 H   0  0  0  0  0  0  0  0  0  0  0  0
    6.6325    1.3970   -0.2019 H   0  0  0  0  0  0  0  0  0  0  0  0
    7.2769    3.7722   -0.3542 H   0  0  0  0  0  0  0  0  0  0  0  0
    7.9277    6.1523   -0.5082 H   0  0  0  0  0  0  0  0  0  0  0  0
    9.5468    7.9512   -0.0482 H   0  0  0  0  0  0  0  0  0  0  0  0
  1  2  4  0
  2  3  4  0
  3  4  4  0
  4  5  4  0
  5  6  4  0
  6  7  4  0
  7  8  4  0
  8  9  4  0
  9 10  4  0
 10 11  4  0
 11 12  4  0
 12 13  4  0
 13 14  1  0
 14 15  4  0
 15 16  4  0
 16 17  4  0
 17 18  4  0
 18 19  4  0
 19 20  4  0
 20 21  4  0
 21 22  4  0
 22 23  4  0
 23 24  1  0
 24 25  4  0
 25 26  4  0
 26 27  4  0
 27 28  4  0
 28 29  4  0
 29 30  4  0
 30 31  4  0
 31 32  4  0
 32 33  4  0
 33 34  4  0
 34 35  4  0
 35 36  4  0
 36 37  4  0
 37 38  4  0
 38 39  4  0
 39 40  4  0
 40 41  4  0
 41 42  4  0
 42 43  4  0
 43 44  4  0
 44 45  4  0
 23 46  4  0
 46 47  4  0
 47 48  4  0
 48 49  4  0
 49 50  4  0
 50 51  4  0
 51 52  4  0
 52 53  4  0
 13 54  4  0
 54 55  4  0
 55 56  4  0
 56 57  4  0
 57 58  4  0
 58 59  4  0
 59 60  4  0
 60 61  4  0
 61 62  4  0
 62  1  4  0
 60  3  4  0
 58  5  4  0
 56  7  4  0
 54  9  4  0
 53 14  4  0
 52 17  4  0
 50 19  4  0
 48 21  4  0
 45 24  4  0
 42 25  4  0
 40 27  4  0
 38 29  4  0
 36 31  4  0
  1 63  1  0
  2 64  1  0
  4 65  1  0
  6 66  1  0
  8 67  1  0
 10 68  1  0
 11 69  1  0
 12 70  1  0
 15 71  1  0
 16 72  1  0
 18 73  1  0
 20 74  1  0
 22 75  1  0
 28 76  1  0
 30 77  1  0
 32 78  1  0
 33 79  1  0
 34 80  1  0
 35 81  1  0
 37 82  1  0
 39 83  1  0
 41 84  1  0
 43 85  1  0
 44 86  1  0
 45 87  1  0
 46 88  1  0
 47 89  1  0
 49 90  1  0
 51 91  1  0
 53 92  1  0
 57 93  1  0
 59 94  1  0
 61 95  1  0
 62 96  1  0
M  END
