
     RDKit          3D

 96109  0  0  0  0  0  0  0  0999 V2000
   17.6998   -2.1230   -1.3175 C   0  0  0  0  0  0  0  0  0  0  0  0
   18.0263   -1.7044   -0.0329 C   0  0  0  0  0  0  0  0  0  0  0  0
   17.0382   -1.1610    0.7939 C   0  0  0  0  0  0  0  0  0  0  0  0
   15.7232   -1.0233    0.3694 C   0  0  0  0  0  0  0  0  0  0  0  0
   14.8120   -0.4943    1.2047 N   0  0  0  0  0  0  0  0  0  0  0  0
   13.5396   -0.3622    0.7912 C   0  0  0  0  0  0  0  0  0  0  0  0
   12.6001    0.1837    1.6544 C   0  0  0  0  0  0  0  0  0  0  0  0
   11.2526    0.3527    1.2900 C   0  0  0  0  0  0  0  0  0  0  0  0
   10.3165    0.9077    2.1782 C   0  0  0  0  0  0  0  0  0  0  0  0
    8.9715    1.0767    1.8113 C   0  0  0  0  0  0  0  0  0  0  0  0
    8.0364    1.6305    2.6970 C   0  0  0  0  0  0  0  0  0  0  0  0
    6.7015    1.7941    2.3160 C   0  0  0  0  0  0  0  0  0  0  0  0
    6.2630    1.4113    1.0412 C   0  0  0  0  0  0  0  0  0  0  0  0
    4.8595    1.5899    0.6376 C   0  0  0  0  0  0  0  0  0  0  0  0
    4.5278    2.3141   -0.5154 C   0  0  0  0  0  0  0  0  0  0  0  0
    3.1945    2.4872   -0.8977 C   0  0  0  0  0  0  0  0  0  0  0  0
    2.1531    1.9385   -0.1356 C   0  0  0  0  0  0  0  0  0  0  0  0
    0.8079    2.1039   -0.5049 C   0  0  0  0  0  0  0  0  0  0  0  0
   -0.2346    1.5535    0.2597 C   0  0  0  0  0  0  0  0  0  0  0  0
   -1.5805    1.7196   -0.1085 C   0  0  0  0  0  0  0  0  0  0  0  0
   -2.6231    1.1705    0.6564 C   0  0  0  0  0  0  0  0  0  0  0  0
   -3.9706    1.3381    0.2888 C   0  0  0  0  0  0  0  0  0  0  0  0
   -5.0177    0.7900    1.0489 C   0  0  0  0  0  0  0  0  0  0  0  0
   -6.4201    0.9773    0.6469 C   0  0  0  0  0  0  0  0  0  0  0  0
   -7.2638   -0.1254    0.4309 C   0  0  0  0  0  0  0  0  0  0  0  0
   -8.6046    0.0357    0.0374 C   0  0  0  0  0  0  0  0  0  0  0  0
   -9.4418   -1.0705   -0.1832 C   0  0  0  0  0  0  0  0  0  0  0  0
  -10.7797   -0.9074   -0.5796 C   0  0  0  0  0  0  0  0  0  0  0  0
  -11.6199   -2.0075   -0.8027 C   0  0  0  0  0  0  0  0  0  0  0  0
  -12.9563   -1.8263   -1.2009 C   0  0  0  0  0  0  0  0  0  0  0  0
  -13.8121   -2.9096   -1.4296 C   0  0  0  0  0  0  0  0  0  0  0  0
  -15.1355   -2.6884   -1.8255 C   0  0  0  0  0  0  0  0  0  0  0  0
  -16.0267   -3.7500   -2.0652 C   0  0  0  0  0  0  0  0  0  0  0  0
  -17.3382   -3.4923   -2.4584 C   0  0  0  0  0  0  0  0  0  0  0  0
  -17.7620   -2.1776   -2.6130 C   0  0  0  0  0  0  0  0  0  0  0  0
  -16.8711   -1.1268   -2.3732 C   0  0  0  0  0  0  0  0  0  0  0  0
  -15.5589   -1.3550   -1.9803 C   0  0  0  0  0  0  0  0  0  0  0  0
  -14.7432   -0.3083   -1.7626 N   0  0  0  0  0  0  0  0  0  0  0  0
  -13.4736   -0.5323   -1.3823 C   0  0  0  0  0  0  0  0  0  0  0  0
  -12.6330    0.5488   -1.1577 C   0  0  0  0  0  0  0  0  0  0  0  0
  -11.2938    0.3901   -0.7593 C   0  0  0  0  0  0  0  0  0  0  0  0
  -10.4576    1.4970   -0.5380 C   0  0  0  0  0  0  0  0  0  0  0  0
   -9.1196    1.3352   -0.1429 C   0  0  0  0  0  0  0  0  0  0  0  0
   -8.2829    2.4389    0.0749 C   0  0  0  0  0  0  0  0  0  0  0  0
   -6.9520    2.2607    0.4632 C   0  0  0  0  0  0  0  0  0  0  0  0
   -4.6862    0.0606    2.1983 C   0  0  0  0  0  0  0  0  0  0  0  0
   -3.3522   -0.1148    2.5786 C   0  0  0  0  0  0  0  0  0  0  0  0
   -2.3111    0.4348    1.8169 C   0  0  0  0  0  0  0  0  0  0  0  0
   -0.9658    0.2683    2.1852 C   0  0  0  0  0  0  0  0  0  0  0  0
    0.0763    0.8193    1.4208 C   0  0  0  0  0  0  0  0  0  0  0  0
    1.4221    0.6539    1.7896 C   0  0  0  0  0  0  0  0  0  0  0  0
    2.4648    1.2055    1.0267 C   0  0  0  0  0  0  0  0  0  0  0  0
    3.8122    1.0416    1.3972 C   0  0  0  0  0  0  0  0  0  0  0  0
    7.2042    0.8550    0.1582 C   0  0  0  0  0  0  0  0  0  0  0  0
    8.5511    0.6824    0.5253 C   0  0  0  0  0  0  0  0  0  0  0  0
    9.4876    0.1253   -0.3615 C   0  0  0  0  0  0  0  0  0  0  0  0
   10.8330   -0.0432    0.0066 C   0  0  0  0  0  0  0  0  0  0  0  0
   11.7733   -0.5969   -0.8741 C   0  0  0  0  0  0  0  0  0  0  0  0
   13.1165   -0.7569   -0.4894 C   0  0  0  0  0  0  0  0  0  0  0  0
   14.0716   -1.3065   -1.3520 C   0  0  0  0  0  0  0  0  0  0  0  0
   15.3985   -1.4489   -0.9323 C   0  0  0  0  0  0  0  0  0  0  0  0
   16.3879   -1.9964   -1.7690 C   0  0  0  0  0  0  0  0  0  0  0  0
   18.4630   -2.5463   -1.9653 H   0  0  0  0  0  0  0  0  0  0  0  0
   19.0460   -1.7977    0.3315 H   0  0  0  0  0  0  0  0  0  0  0  0
   17.3004   -0.8355    1.7978 H   0  0  0  0  0  0  0  0  0  0  0  0
   12.9368    0.4862    2.6441 H   0  0  0  0  0  0  0  0  0  0  0  0
   10.6407    1.2135    3.1717 H   0  0  0  0  0  0  0  0  0  0  0  0
    8.3400    1.9442    3.6934 H   0  0  0  0  0  0  0  0  0  0  0  0
    6.0041    2.2388    3.0234 H   0  0  0  0  0  0  0  0  0  0  0  0
    5.3112    2.7637   -1.1227 H   0  0  0  0  0  0  0  0  0  0  0  0
    2.9775    3.0596   -1.7969 H   0  0  0  0  0  0  0  0  0  0  0  0
    0.5683    2.6709   -1.4027 H   0  0  0  0  0  0  0  0  0  0  0  0
   -1.8214    2.2866   -1.0061 H   0  0  0  0  0  0  0  0  0  0  0  0
   -4.2113    1.8975   -0.6143 H   0  0  0  0  0  0  0  0  0  0  0  0
   -6.8624   -1.1298    0.5584 H   0  0  0  0  0  0  0  0  0  0  0  0
   -9.0442   -2.0745   -0.0453 H   0  0  0  0  0  0  0  0  0  0  0  0
  -11.2327   -3.0154   -0.6664 H   0  0  0  0  0  0  0  0  0  0  0  0
  -13.4485   -3.9260   -1.2997 H   0  0  0  0  0  0  0  0  0  0  0  0
  -15.7024   -4.7812   -1.9463 H   0  0  0  0  0  0  0  0  0  0  0  0
  -18.0255   -4.3138   -2.6432 H   0  0  0  0  0  0  0  0  0  0  0  0
  -18.7826   -1.9631   -2.9193 H   0  0  0  0  0  0  0  0  0  0  0  0
  -17.2092   -0.1005   -2.4959 H   0  0  0  0  0  0  0  0  0  0  0  0
  -13.0421    1.5471   -1.3005 H   0  0  0  0  0  0  0  0  0  0  0  0
  -10.8546    2.5013   -0.6775 H   0  0  0  0  0  0  0  0  0  0  0  0
   -8.6603    3.4508   -0.0551 H   0  0  0  0  0  0  0  0  0  0  0  0
   -6.3319    3.1391    0.6323 H   0  0  0  0  0  0  0  0  0  0  0  0
   -5.4698   -0.3696    2.8189 H   0  0  0  0  0  0  0  0  0  0  0  0
   -3.1348   -0.6840    3.4797 H   0  0  0  0  0  0  0  0  0  0  0  0
   -0.7261   -0.2999    3.0823 H   0  0  0  0  0  0  0  0  0  0  0  0
    1.6624    0.0861    2.6868 H   0  0  0  0  0  0  0  0  0  0  0  0
    4.0518    0.4661    2.2903 H   0  0  0  0  0  0  0  0  0  0  0  0
    6.8771    0.5410   -0.8320 H   0  0  0  0  0  0  0  0  0  0  0  0
    9.1632   -0.1811   -1.3545 H   0  0  0  0  0  0  0  0  0  0  0  0
   11.4601   -0.9071   -1.8692 H   0  0  0  0  0  0  0  0  0  0  0  0
   13.7826   -1.6240   -2.3509 H   0  0  0  0  0  0  0  0  0  0  0  0
   16.1401   -2.3261   -2.7753 H   0  0  0  0  0  0  0  0  0  0  0  0
  1  2  4  0
  2  3  4  0
  3  4  4  0
  4  5  4  0
  5  6  4  0
  6  7  4  0
  7  8  4  0
  8  9  4  0
  9 10  4  0
 10 11  4  0
 11 12  4  0
 12 13  4  0
 13 14  1  0
 14 15  4  0
 15 16  4  0
 16 17  4  0
 17 18  4  0
 18 19  4  0
 19 20  4  0
 20 21  4  0
 21 22  4  0
 22 23  4  0
 23 24  1  0
 24 25  4  0
 25 26  4  0
 26 27  4  0
 27 28  4  0
 28 29  4  0
 29 30  4  0
 30 31  4  0
 31 32  4  0
 32 33  4  0
 33 34  4  0
 34 35  4  0
 35 36  4  0
 36 37  4  0
 37 38  4  0
 38 39  4  0
 39 40  4  0
 40 41  4  0
 41 42  4  0
 42 43  4  0
 43 44  4  0
 44 45  4  0
 23 46  4  0
 46 47  4  0
 47 48  4  0
 48 49  4  0
 49 50  4  0
 50 51  4  0
 51 52  4  0
 52 53  4  0
 13 54  4  0
 54 55  4  0
 55 56  4  0
 56 57  4  0
 57 58  4  0
 58 59  4  0
 59 60  4  0
 60 61  4  0
 61 62  4  0
 62  1  4  0
 61  4  4  0
 59  6  4  0
 57  8  4  0
 55 10  4  0
 53 14  4  0
 52 17  4  0
 50 19  4  0
 48 21  4  0
 45 24  4  0
 43 26  4  0
 41 28  4  0
 39 30  4  0
 37 32  4  0
  1 63  1  0
  2 64  1  0
  3 65  1  0
  7 66  1  0
  9 67  1  0
 11 68  1  0
 12 69  1  0
 15 70  1  0
 16 71  1  0
 18 72  1  0
 20 73  1  0
 22 74  1  0
 25 75  1  0
 27 76  1  0
 29 77  1  0
 31 78  1  0
 33 79  1  0
 34 80  1  0
 35 81  1  0
 36 82  1  0
 40 83  1  0
 42 84  1  0
 44 85  1  0
 45 86  1  0
 46 87  1  0
 47 88  1  0
 49 89  1  0
 51 90  1  0
 53 91  1  0
 54 92  1  0
 56 93  1  0
 58 94  1  0
 60 95  1  0
 62 96  1  0
M  END
