
     RDKit          3D

 96109  0  0  0  0  0  0  0  0999 V2000
   -8.6701   -7.2255    1.6472 C   0  0  0  0  0  0  0  0  0  0  0  0
   -7.3537   -7.2433    1.2012 C   0  0  0  0  0  0  0  0  0  0  0  0
   -6.7190   -6.0455    0.8583 C   0  0  0  0  0  0  0  0  0  0  0  0
   -7.3680   -4.8213    0.9494 C   0  0  0  0  0  0  0  0  0  0  0  0
   -6.7116   -3.6991    0.6066 N   0  0  0  0  0  0  0  0  0  0  0  0
   -7.3422   -2.5151    0.6960 C   0  0  0  0  0  0  0  0  0  0  0  0
   -6.6645   -1.3568    0.3429 C   0  0  0  0  0  0  0  0  0  0  0  0
   -7.2611   -0.0849    0.4119 C   0  0  0  0  0  0  0  0  0  0  0  0
   -6.5587    1.0776    0.0509 C   0  0  0  0  0  0  0  0  0  0  0  0
   -7.1401    2.3666    0.1153 C   0  0  0  0  0  0  0  0  0  0  0  0
   -8.4815    2.4594    0.5584 C   0  0  0  0  0  0  0  0  0  0  0  0
   -9.1841    1.2968    0.9191 C   0  0  0  0  0  0  0  0  0  0  0  0
   -8.5895    0.0271    0.8519 C   0  0  0  0  0  0  0  0  0  0  0  0
   -9.2861   -1.1357    1.2119 C   0  0  0  0  0  0  0  0  0  0  0  0
   -8.6714   -2.3985    1.1364 C   0  0  0  0  0  0  0  0  0  0  0  0
   -9.3470   -3.5716    1.4908 C   0  0  0  0  0  0  0  0  0  0  0  0
   -8.7007   -4.8092    1.4018 C   0  0  0  0  0  0  0  0  0  0  0  0
   -9.3449   -6.0108    1.7483 C   0  0  0  0  0  0  0  0  0  0  0  0
   -9.1068    3.7131    0.6362 C   0  0  0  0  0  0  0  0  0  0  0  0
   -8.4270    4.8752    0.2833 C   0  0  0  0  0  0  0  0  0  0  0  0
   -7.1083    4.7983   -0.1519 C   0  0  0  0  0  0  0  0  0  0  0  0
   -6.4473    3.5599   -0.2424 C   0  0  0  0  0  0  0  0  0  0  0  0
   -5.0502    3.5505   -0.7041 C   0  0  0  0  0  0  0  0  0  0  0  0
   -4.7489    3.5284   -2.0708 C   0  0  0  0  0  0  0  0  0  0  0  0
   -3.4216    3.5138   -2.5067 C   0  0  0  0  0  0  0  0  0  0  0  0
   -2.3635    3.5231   -1.5851 C   0  0  0  0  0  0  0  0  0  0  0  0
   -1.0238    3.5064   -2.0073 C   0  0  0  0  0  0  0  0  0  0  0  0
    0.0357    3.5152   -1.0843 C   0  0  0  0  0  0  0  0  0  0  0  0
    1.3762    3.4989   -1.5064 C   0  0  0  0  0  0  0  0  0  0  0  0
    2.4353    3.5083   -0.5836 C   0  0  0  0  0  0  0  0  0  0  0  0
    3.7762    3.4914   -1.0056 C   0  0  0  0  0  0  0  0  0  0  0  0
    4.8335    3.5001   -0.0823 C   0  0  0  0  0  0  0  0  0  0  0  0
    6.2314    3.4865   -0.5419 C   0  0  0  0  0  0  0  0  0  0  0  0
    6.8199    4.7115   -0.9061 C   0  0  0  0  0  0  0  0  0  0  0  0
    8.1390    4.7703   -1.3418 C   0  0  0  0  0  0  0  0  0  0  0  0
    8.8926    3.6030   -1.4203 C   0  0  0  0  0  0  0  0  0  0  0  0
    8.3407    2.3621   -1.0678 C   0  0  0  0  0  0  0  0  0  0  0  0
    9.1184    1.1946   -1.1545 C   0  0  0  0  0  0  0  0  0  0  0  0
    8.5988   -0.0635   -0.8123 C   0  0  0  0  0  0  0  0  0  0  0  0
    9.3728   -1.2306   -0.8957 C   0  0  0  0  0  0  0  0  0  0  0  0
    8.8328   -2.4819   -0.5483 C   0  0  0  0  0  0  0  0  0  0  0  0
    9.5866   -3.6588   -0.6231 C   0  0  0  0  0  0  0  0  0  0  0  0
    9.0134   -4.8846   -0.2679 C   0  0  0  0  0  0  0  0  0  0  0  0
    9.7376   -6.0890   -0.3289 C   0  0  0  0  0  0  0  0  0  0  0  0
    9.1345   -7.2917    0.0326 C   0  0  0  0  0  0  0  0  0  0  0  0
    7.8103   -7.2950    0.4548 C   0  0  0  0  0  0  0  0  0  0  0  0
    7.0959   -6.0944    0.5133 C   0  0  0  0  0  0  0  0  0  0  0  0
    7.6722   -4.8816    0.1589 C   0  0  0  0  0  0  0  0  0  0  0  0
    6.9409   -3.7556    0.2334 N   0  0  0  0  0  0  0  0  0  0  0  0
    7.5014   -2.5827   -0.1103 C   0  0  0  0  0  0  0  0  0  0  0  0
    6.7468   -1.4202   -0.0334 C   0  0  0  0  0  0  0  0  0  0  0  0
    7.2683   -0.1590   -0.3752 C   0  0  0  0  0  0  0  0  0  0  0  0
    6.4899    1.0089   -0.2893 C   0  0  0  0  0  0  0  0  0  0  0  0
    6.9980    2.2871   -0.6249 C   0  0  0  0  0  0  0  0  0  0  0  0
    4.5305    3.5305    1.2843 C   0  0  0  0  0  0  0  0  0  0  0  0
    3.2029    3.5461    1.7189 C   0  0  0  0  0  0  0  0  0  0  0  0
    2.1460    3.5352    0.7962 C   0  0  0  0  0  0  0  0  0  0  0  0
    0.8064    3.5508    1.2178 C   0  0  0  0  0  0  0  0  0  0  0  0
   -0.2524    3.5413    0.2944 C   0  0  0  0  0  0  0  0  0  0  0  0
   -1.5923    3.5577    0.7171 C   0  0  0  0  0  0  0  0  0  0  0  0
   -2.6517    3.5486   -0.2051 C   0  0  0  0  0  0  0  0  0  0  0  0
   -3.9920    3.5626    0.2182 C   0  0  0  0  0  0  0  0  0  0  0  0
   -9.1693   -8.1529    1.9154 H   0  0  0  0  0  0  0  0  0  0  0  0
   -6.8157   -8.1841    1.1179 H   0  0  0  0  0  0  0  0  0  0  0  0
   -5.6889   -6.0664    0.5103 H   0  0  0  0  0  0  0  0  0  0  0  0
   -5.6351   -1.4547    0.0030 H   0  0  0  0  0  0  0  0  0  0  0  0
   -5.5295    0.9720   -0.2908 H   0  0  0  0  0  0  0  0  0  0  0  0
  -10.2150    1.3818    1.2592 H   0  0  0  0  0  0  0  0  0  0  0  0
  -10.3163   -1.0606    1.5544 H   0  0  0  0  0  0  0  0  0  0  0  0
  -10.3766   -3.5218    1.8364 H   0  0  0  0  0  0  0  0  0  0  0  0
  -10.3746   -6.0044    2.0981 H   0  0  0  0  0  0  0  0  0  0  0  0
  -10.1376    3.7948    0.9751 H   0  0  0  0  0  0  0  0  0  0  0  0
   -8.9239    5.8394    0.3488 H   0  0  0  0  0  0  0  0  0  0  0  0
   -6.5852    5.7141   -0.4222 H   0  0  0  0  0  0  0  0  0  0  0  0
   -5.5516    3.5150   -2.8055 H   0  0  0  0  0  0  0  0  0  0  0  0
   -3.2216    3.4925   -3.5757 H   0  0  0  0  0  0  0  0  0  0  0  0
   -0.8022    3.4842   -3.0728 H   0  0  0  0  0  0  0  0  0  0  0  0
    1.5985    3.4806   -2.5721 H   0  0  0  0  0  0  0  0  0  0  0  0
    4.0077    3.4668   -2.0696 H   0  0  0  0  0  0  0  0  0  0  0  0
    6.2407    5.6315   -0.8447 H   0  0  0  0  0  0  0  0  0  0  0  0
    8.5797    5.7245   -1.6181 H   0  0  0  0  0  0  0  0  0  0  0  0
    9.9235    3.6705   -1.7624 H   0  0  0  0  0  0  0  0  0  0  0  0
   10.1501    1.2667   -1.4953 H   0  0  0  0  0  0  0  0  0  0  0  0
   10.4053   -1.1675   -1.2336 H   0  0  0  0  0  0  0  0  0  0  0  0
   10.6203   -3.6211   -0.9577 H   0  0  0  0  0  0  0  0  0  0  0  0
   10.7740   -6.0945   -0.6582 H   0  0  0  0  0  0  0  0  0  0  0  0
    9.6956   -8.2214   -0.0152 H   0  0  0  0  0  0  0  0  0  0  0  0
    7.3278   -8.2263    0.7397 H   0  0  0  0  0  0  0  0  0  0  0  0
    6.0601   -6.1042    0.8446 H   0  0  0  0  0  0  0  0  0  0  0  0
    5.7162   -1.5060    0.3064 H   0  0  0  0  0  0  0  0  0  0  0  0
    5.4580    0.9162    0.0479 H   0  0  0  0  0  0  0  0  0  0  0  0
    5.3324    3.5392    2.0200 H   0  0  0  0  0  0  0  0  0  0  0  0
    3.0017    3.5657    2.7877 H   0  0  0  0  0  0  0  0  0  0  0  0
    0.5840    3.5708    2.2833 H   0  0  0  0  0  0  0  0  0  0  0  0
   -1.8141    3.5799    1.7827 H   0  0  0  0  0  0  0  0  0  0  0  0
   -4.2228    3.5766    1.2826 H   0  0  0  0  0  0  0  0  0  0  0  0
  1  2  4  0
  2  3  4  0
  3  4  4  0
  4  5  4  0
  5  6  4  0
  6  7  4  0
  7  8  4  0
  8  9  4  0
  9 10  4  0
 10 11  4  0
 11 12  4  0
 12 13  4  0
 13 14  4  0
 14 15  4  0
 15 16  4  0
 16 17  4  0
 17 18  4  0
 11 19  4  0
 19 20  4  0
 20 21  4  0
 21 22  4  0
 22 23  1  0
 23 24  4  0
 24 25  4  0
 25 26  4  0
 26 27  4  0
 27 28  4  0
 28 29  4  0
 29 30  4  0
 30 31  4  0
 31 32  4  0
 32 33  1  0
 33 34  4  0
 34 35  4  0
 35 36  4  0
 36 37  4  0
 37 38  4  0
 38 39  4  0
 39 40  4  0
 40 41  4  0
 41 42  4  0
 42 43  4  0
 43 44  4  0
 44 45  4  0
 45 46  4  0
 46 47  4  0
 47 48  4  0
 48 49  4  0
 49 50  4  0
 50 51  4  0
 51 52  4  0
 52 53  4  0
 53 54  4  0
 32 55  4  0
 55 56  4  0
 56 57  4  0
 57 58  4  0
 58 59  4  0
 59 60  4  0
 60 61  4  0
 61 62  4  0
 18  1  4  0
 62 23  4  0
 17  4  4  0
 61 26  4  0
 15  6  4  0
 59 28  4  0
 13  8  4  0
 57 30  4  0
 22 10  4  0
 54 33  4  0
 54 37  4  0
 52 39  4  0
 50 41  4  0
 48 43  4  0
  1 63  1  0
  2 64  1  0
  3 65  1  0
  7 66  1  0
  9 67  1  0
 12 68  1  0
 14 69  1  0
 16 70  1  0
 18 71  1  0
 19 72  1  0
 20 73  1  0
 21 74  1  0
 24 75  1  0
 25 76  1  0
 27 77  1  0
 29 78  1  0
 31 79  1  0
 34 80  1  0
 35 81  1  0
 36 82  1  0
 38 83  1  0
 40 84  1  0
 42 85  1  0
 44 86  1  0
 45 87  1  0
 46 88  1  0
 47 89  1  0
 51 90  1  0
 53 91  1  0
 55 92  1  0
 56 93  1  0
 58 94  1  0
 60 95  1  0
 62 96  1  0
M  END
