
     RDKit          3D

 96109  0  0  0  0  0  0  0  0999 V2000
   17.9969    2.0134   -0.2008 C   0  0  0  0  0  0  0  0  0  0  0  0
   17.5022    2.8889   -1.1603 C   0  0  0  0  0  0  0  0  0  0  0  0
   16.1222    2.9975   -1.3575 C   0  0  0  0  0  0  0  0  0  0  0  0
   15.2162    2.2498   -0.6170 C   0  0  0  0  0  0  0  0  0  0  0  0
   13.8990    2.3925   -0.8466 N   0  0  0  0  0  0  0  0  0  0  0  0
   13.0239    1.6678   -0.1280 C   0  0  0  0  0  0  0  0  0  0  0  0
   11.6649    1.8162   -0.3657 C   0  0  0  0  0  0  0  0  0  0  0  0
   10.6931    1.0925    0.3477 C   0  0  0  0  0  0  0  0  0  0  0  0
    9.3219    1.2584    0.0924 C   0  0  0  0  0  0  0  0  0  0  0  0
    8.3515    0.5371    0.8071 C   0  0  0  0  0  0  0  0  0  0  0  0
    6.9786    0.7059    0.5530 C   0  0  0  0  0  0  0  0  0  0  0  0
    6.0013   -0.0110    1.2642 C   0  0  0  0  0  0  0  0  0  0  0  0
    4.5693    0.1841    0.9872 C   0  0  0  0  0  0  0  0  0  0  0  0
    3.9940    1.4612    1.0324 C   0  0  0  0  0  0  0  0  0  0  0  0
    2.6338    1.6475    0.7695 C   0  0  0  0  0  0  0  0  0  0  0  0
    1.8087    0.5588    0.4526 C   0  0  0  0  0  0  0  0  0  0  0  0
    0.4398    0.7285    0.1860 C   0  0  0  0  0  0  0  0  0  0  0  0
   -0.3856   -0.3633   -0.1323 C   0  0  0  0  0  0  0  0  0  0  0  0
   -1.7552   -0.1943   -0.3984 C   0  0  0  0  0  0  0  0  0  0  0  0
   -2.5810   -1.2858   -0.7160 C   0  0  0  0  0  0  0  0  0  0  0  0
   -3.9523   -1.1168   -0.9812 C   0  0  0  0  0  0  0  0  0  0  0  0
   -4.7839   -2.2041   -1.3001 C   0  0  0  0  0  0  0  0  0  0  0  0
   -6.2169   -2.0068   -1.5710 C   0  0  0  0  0  0  0  0  0  0  0  0
   -7.0462   -1.3607   -0.6382 C   0  0  0  0  0  0  0  0  0  0  0  0
   -8.4170   -1.1587   -0.8813 C   0  0  0  0  0  0  0  0  0  0  0  0
   -9.2399   -0.5122    0.0559 C   0  0  0  0  0  0  0  0  0  0  0  0
  -10.6084   -0.3084   -0.1879 C   0  0  0  0  0  0  0  0  0  0  0  0
  -11.4328    0.3400    0.7489 C   0  0  0  0  0  0  0  0  0  0  0  0
  -12.7862    0.5518    0.5264 C   0  0  0  0  0  0  0  0  0  0  0  0
  -13.5154    1.1795    1.4652 N   0  0  0  0  0  0  0  0  0  0  0  0
  -14.8270    1.3848    1.2507 C   0  0  0  0  0  0  0  0  0  0  0  0
  -15.5835    2.0324    2.2186 C   0  0  0  0  0  0  0  0  0  0  0  0
  -16.9504    2.2718    2.0474 C   0  0  0  0  0  0  0  0  0  0  0  0
  -17.5846    1.8566    0.8824 C   0  0  0  0  0  0  0  0  0  0  0  0
  -16.8497    1.2045   -0.1052 C   0  0  0  0  0  0  0  0  0  0  0  0
  -15.4748    0.9666    0.0731 C   0  0  0  0  0  0  0  0  0  0  0  0
  -14.7059    0.3148   -0.8970 C   0  0  0  0  0  0  0  0  0  0  0  0
  -13.3404    0.0967   -0.6821 C   0  0  0  0  0  0  0  0  0  0  0  0
  -12.5339   -0.5546   -1.6327 C   0  0  0  0  0  0  0  0  0  0  0  0
  -11.1673   -0.7626   -1.3967 C   0  0  0  0  0  0  0  0  0  0  0  0
  -10.3465   -1.4112   -2.3348 C   0  0  0  0  0  0  0  0  0  0  0  0
   -8.9781   -1.6147   -2.0909 C   0  0  0  0  0  0  0  0  0  0  0  0
   -8.1559   -2.2617   -3.0243 C   0  0  0  0  0  0  0  0  0  0  0  0
   -6.7953   -2.4548   -2.7662 C   0  0  0  0  0  0  0  0  0  0  0  0
   -4.2077   -3.4805   -1.3506 C   0  0  0  0  0  0  0  0  0  0  0  0
   -2.8467   -3.6665   -1.0894 C   0  0  0  0  0  0  0  0  0  0  0  0
   -2.0220   -2.5779   -0.7707 C   0  0  0  0  0  0  0  0  0  0  0  0
   -0.6530   -2.7473   -0.5048 C   0  0  0  0  0  0  0  0  0  0  0  0
    0.1721   -1.6556   -0.1858 C   0  0  0  0  0  0  0  0  0  0  0  0
    1.5414   -1.8248    0.0809 C   0  0  0  0  0  0  0  0  0  0  0  0
    2.3671   -0.7339    0.4007 C   0  0  0  0  0  0  0  0  0  0  0  0
    3.7380   -0.9034    0.6688 C   0  0  0  0  0  0  0  0  0  0  0  0
    6.4317   -0.9139    2.2459 C   0  0  0  0  0  0  0  0  0  0  0  0
    7.7926   -1.0941    2.5112 C   0  0  0  0  0  0  0  0  0  0  0  0
    8.7633   -0.3745    1.7997 C   0  0  0  0  0  0  0  0  0  0  0  0
   10.1347   -0.5414    2.0543 C   0  0  0  0  0  0  0  0  0  0  0  0
   11.1038    0.1826    1.3394 C   0  0  0  0  0  0  0  0  0  0  0  0
   12.4747    0.0235    1.5880 C   0  0  0  0  0  0  0  0  0  0  0  0
   13.4304    0.7579    0.8630 C   0  0  0  0  0  0  0  0  0  0  0  0
   14.8032    0.6157    1.0949 C   0  0  0  0  0  0  0  0  0  0  0  0
   15.7228    1.3649    0.3532 C   0  0  0  0  0  0  0  0  0  0  0  0
   17.1100    1.2511    0.5564 C   0  0  0  0  0  0  0  0  0  0  0  0
   19.0685    1.9241   -0.0423 H   0  0  0  0  0  0  0  0  0  0  0  0
   18.1833    3.4894   -1.7577 H   0  0  0  0  0  0  0  0  0  0  0  0
   15.7418    3.6844   -2.1098 H   0  0  0  0  0  0  0  0  0  0  0  0
   11.3588    2.5229   -1.1347 H   0  0  0  0  0  0  0  0  0  0  0  0
    9.0047    1.9623   -0.6756 H   0  0  0  0  0  0  0  0  0  0  0  0
    6.6628    1.4029   -0.2222 H   0  0  0  0  0  0  0  0  0  0  0  0
    4.6031    2.3268    1.2862 H   0  0  0  0  0  0  0  0  0  0  0  0
    2.2243    2.6541    0.8179 H   0  0  0  0  0  0  0  0  0  0  0  0
    0.0097    1.7277    0.2269 H   0  0  0  0  0  0  0  0  0  0  0  0
   -2.1869    0.8043   -0.3574 H   0  0  0  0  0  0  0  0  0  0  0  0
   -4.3810   -0.1160   -0.9496 H   0  0  0  0  0  0  0  0  0  0  0  0
   -6.6161   -1.0174    0.3019 H   0  0  0  0  0  0  0  0  0  0  0  0
   -8.8079   -0.1608    0.9917 H   0  0  0  0  0  0  0  0  0  0  0  0
  -11.0118    0.6953    1.6875 H   0  0  0  0  0  0  0  0  0  0  0  0
  -15.0941    2.3599    3.1329 H   0  0  0  0  0  0  0  0  0  0  0  0
  -17.5125    2.7814    2.8257 H   0  0  0  0  0  0  0  0  0  0  0  0
  -18.6470    2.0395    0.7430 H   0  0  0  0  0  0  0  0  0  0  0  0
  -17.3530    0.8825   -1.0139 H   0  0  0  0  0  0  0  0  0  0  0  0
  -15.1712   -0.0229   -1.8198 H   0  0  0  0  0  0  0  0  0  0  0  0
  -12.9772   -0.9015   -2.5641 H   0  0  0  0  0  0  0  0  0  0  0  0
  -10.7786   -1.7632   -3.2698 H   0  0  0  0  0  0  0  0  0  0  0  0
   -8.5661   -2.6199   -3.9659 H   0  0  0  0  0  0  0  0  0  0  0  0
   -6.1832   -2.9499   -3.5177 H   0  0  0  0  0  0  0  0  0  0  0  0
   -4.8219   -4.3485   -1.5824 H   0  0  0  0  0  0  0  0  0  0  0  0
   -2.4371   -4.6732   -1.1341 H   0  0  0  0  0  0  0  0  0  0  0  0
   -0.2225   -3.7463   -0.5469 H   0  0  0  0  0  0  0  0  0  0  0  0
    1.9725   -2.8236    0.0392 H   0  0  0  0  0  0  0  0  0  0  0  0
    4.1712   -1.9013    0.6169 H   0  0  0  0  0  0  0  0  0  0  0  0
    5.7040   -1.4788    2.8255 H   0  0  0  0  0  0  0  0  0  0  0  0
    8.0866   -1.8009    3.2839 H   0  0  0  0  0  0  0  0  0  0  0  0
   10.4519   -1.2455    2.8215 H   0  0  0  0  0  0  0  0  0  0  0  0
   12.8044   -0.6773    2.3525 H   0  0  0  0  0  0  0  0  0  0  0  0
   15.1567   -0.0785    1.8534 H   0  0  0  0  0  0  0  0  0  0  0  0
   17.5043    0.5682    1.3053 H   0  0  0  0  0  0  0  0  0  0  0  0
  1  2  4  0
  2  3  4  0
  3  4  4  0
  4  5  4  0
  5  6  4  0
  6  7  4  0
  7  8  4  0
  8  9  4  0
  9 10  4  0
 10 11  4  0
 11 12  4  0
 12 13  1  0
 13 14  4  0
 14 15  4  0
 15 16  4  0
 16 17  4  0
 17 18  4  0
 18 19  4  0
 19 20  4  0
 20 21  4  0
 21 22  4  0
 22 23  1  0
 23 24  4  0
 24 25  4  0
 25 26  4  0
 26 27  4  0
 27 28  4  0
 28 29  4  0
 29 30  4  0
 30 31  4  0
 31 32  4  0
 32 33  4  0
 33 34  4  0
 34 35  4  0
 35 36  4  0
 36 37  4  0
 37 38  4  0
 38 39  4  0
 39 40  4  0
 40 41  4  0
 41 42  4  0
 42 43  4  0
 43 44  4  0
 22 45  4  0
 45 46  4  0
 46 47  4  0
 47 48  4  0
 48 49  4  0
 49 50  4  0
 50 51  4  0
 51 52  4  0
 12 53  4  0
 53 54  4  0
 54 55  4  0
 55 56  4  0
 56 57  4  0
 57 58  4  0
 58 59  4  0
 59 60  4  0
 60 61  4  0
 61 62  4  0
 62  1  4  0
 61  4  4  0
 59  6  4  0
 57  8  4  0
 55 10  4  0
 52 13  4  0
 51 16  4  0
 49 18  4  0
 47 20  4  0
 44 23  4  0
 42 25  4  0
 40 27  4  0
 38 29  4  0
 36 31  4  0
  1 63  1  0
  2 64  1  0
  3 65  1  0
  7 66  1  0
  9 67  1  0
 11 68  1  0
 14 69  1  0
 15 70  1  0
 17 71  1  0
 19 72  1  0
 21 73  1  0
 24 74  1  0
 26 75  1  0
 28 76  1  0
 32 77  1  0
 33 78  1  0
 34 79  1  0
 35 80  1  0
 37 81  1  0
 39 82  1  0
 41 83  1  0
 43 84  1  0
 44 85  1  0
 45 86  1  0
 46 87  1  0
 48 88  1  0
 50 89  1  0
 52 90  1  0
 53 91  1  0
 54 92  1  0
 56 93  1  0
 58 94  1  0
 60 95  1  0
 62 96  1  0
M  END
