
     RDKit          3D

 96109  0  0  0  0  0  0  0  0999 V2000
   -7.1605   -0.6266    6.4415 C   0  0  0  0  0  0  0  0  0  0  0  0
   -8.5301   -0.8248    6.3132 C   0  0  0  0  0  0  0  0  0  0  0  0
   -9.1408   -0.6673    5.0653 C   0  0  0  0  0  0  0  0  0  0  0  0
   -8.4144   -0.3143    3.9351 C   0  0  0  0  0  0  0  0  0  0  0  0
   -9.0448   -0.1746    2.7581 N   0  0  0  0  0  0  0  0  0  0  0  0
   -8.3414    0.1677    1.6647 C   0  0  0  0  0  0  0  0  0  0  0  0
   -9.0326    0.2989    0.4741 C   0  0  0  0  0  0  0  0  0  0  0  0
   -8.4096    0.6512   -0.7306 C   0  0  0  0  0  0  0  0  0  0  0  0
   -9.1698    0.7675   -1.9078 C   0  0  0  0  0  0  0  0  0  0  0  0
   -8.5834    1.1191   -3.1321 C   0  0  0  0  0  0  0  0  0  0  0  0
   -9.3444    1.2352   -4.3074 C   0  0  0  0  0  0  0  0  0  0  0  0
   -8.7413    1.5868   -5.5157 C   0  0  0  0  0  0  0  0  0  0  0  0
   -7.3717    1.8263   -5.5638 C   0  0  0  0  0  0  0  0  0  0  0  0
   -6.6044    1.7143   -4.4034 C   0  0  0  0  0  0  0  0  0  0  0  0
   -7.1984    1.3612   -3.1800 C   0  0  0  0  0  0  0  0  0  0  0  0
   -6.4429    1.2435   -2.0002 C   0  0  0  0  0  0  0  0  0  0  0  0
   -7.0213    0.8880   -0.7549 C   0  0  0  0  0  0  0  0  0  0  0  0
   -6.2831    0.7589    0.4618 C   0  0  0  0  0  0  0  0  0  0  0  0
   -4.8249    1.0004    0.4708 C   0  0  0  0  0  0  0  0  0  0  0  0
   -4.3134    2.2739    0.7494 C   0  0  0  0  0  0  0  0  0  0  0  0
   -2.9355    2.5015    0.7517 C   0  0  0  0  0  0  0  0  0  0  0  0
   -2.0364    1.4610    0.4734 C   0  0  0  0  0  0  0  0  0  0  0  0
   -0.6486    1.6752    0.4685 C   0  0  0  0  0  0  0  0  0  0  0  0
    0.2517    0.6349    0.1835 C   0  0  0  0  0  0  0  0  0  0  0  0
    1.6398    0.8504    0.1747 C   0  0  0  0  0  0  0  0  0  0  0  0
    2.5399   -0.1881   -0.1144 C   0  0  0  0  0  0  0  0  0  0  0  0
    3.9281    0.0294   -0.1277 C   0  0  0  0  0  0  0  0  0  0  0  0
    4.8265   -1.0090   -0.4214 C   0  0  0  0  0  0  0  0  0  0  0  0
    6.2831   -0.7601   -0.4452 C   0  0  0  0  0  0  0  0  0  0  0  0
    7.0591   -0.9266    0.7425 C   0  0  0  0  0  0  0  0  0  0  0  0
    6.5208   -1.3242    1.9925 C   0  0  0  0  0  0  0  0  0  0  0  0
    7.3136   -1.4789    3.1432 C   0  0  0  0  0  0  0  0  0  0  0  0
    6.7585   -1.8728    4.3722 C   0  0  0  0  0  0  0  0  0  0  0  0
    7.5620   -2.0209    5.5036 C   0  0  0  0  0  0  0  0  0  0  0  0
    8.9294   -1.7780    5.4208 C   0  0  0  0  0  0  0  0  0  0  0  0
    9.4941   -1.3859    4.2065 C   0  0  0  0  0  0  0  0  0  0  0  0
    8.6962   -1.2324    3.0601 C   0  0  0  0  0  0  0  0  0  0  0  0
    9.2431   -0.8380    1.8305 C   0  0  0  0  0  0  0  0  0  0  0  0
    8.4455   -0.6837    0.6826 C   0  0  0  0  0  0  0  0  0  0  0  0
    9.0287   -0.2867   -0.5281 C   0  0  0  0  0  0  0  0  0  0  0  0
    8.2996   -0.1167   -1.6910 C   0  0  0  0  0  0  0  0  0  0  0  0
    8.9659    0.2679   -2.7937 N   0  0  0  0  0  0  0  0  0  0  0  0
    8.2971    0.4449   -3.9444 C   0  0  0  0  0  0  0  0  0  0  0  0
    8.9842    0.8415   -5.0848 C   0  0  0  0  0  0  0  0  0  0  0  0
    8.3324    1.0388   -6.3061 C   0  0  0  0  0  0  0  0  0  0  0  0
    6.9602    0.8369   -6.3969 C   0  0  0  0  0  0  0  0  0  0  0  0
    6.2486    0.4391   -5.2674 C   0  0  0  0  0  0  0  0  0  0  0  0
    6.9125    0.2423   -4.0426 C   0  0  0  0  0  0  0  0  0  0  0  0
    6.2337   -0.1580   -2.8860 C   0  0  0  0  0  0  0  0  0  0  0  0
    6.9144   -0.3515   -1.6640 C   0  0  0  0  0  0  0  0  0  0  0  0
    4.3149   -2.2824   -0.7003 C   0  0  0  0  0  0  0  0  0  0  0  0
    2.9376   -2.5129   -0.6900 C   0  0  0  0  0  0  0  0  0  0  0  0
    2.0393   -1.4752   -0.4000 C   0  0  0  0  0  0  0  0  0  0  0  0
    0.6518   -1.6907   -0.3896 C   0  0  0  0  0  0  0  0  0  0  0  0
   -0.2481   -0.6511   -0.1017 C   0  0  0  0  0  0  0  0  0  0  0  0
   -1.6361   -0.8663   -0.0939 C   0  0  0  0  0  0  0  0  0  0  0  0
   -2.5367    0.1734    0.1898 C   0  0  0  0  0  0  0  0  0  0  0  0
   -3.9254   -0.0418    0.1939 C   0  0  0  0  0  0  0  0  0  0  0  0
   -6.9545    0.3953    1.6735 C   0  0  0  0  0  0  0  0  0  0  0  0
   -6.3140    0.2403    2.9224 C   0  0  0  0  0  0  0  0  0  0  0  0
   -7.0323   -0.1153    4.0704 C   0  0  0  0  0  0  0  0  0  0  0  0
   -6.4102   -0.2722    5.3225 C   0  0  0  0  0  0  0  0  0  0  0  0
   -6.6778   -0.7474    7.4076 H   0  0  0  0  0  0  0  0  0  0  0  0
   -9.1276   -1.1019    7.1777 H   0  0  0  0  0  0  0  0  0  0  0  0
  -10.2127   -0.8240    4.9708 H   0  0  0  0  0  0  0  0  0  0  0  0
  -10.1063    0.1164    0.4939 H   0  0  0  0  0  0  0  0  0  0  0  0
  -10.2422    0.5807   -1.8708 H   0  0  0  0  0  0  0  0  0  0  0  0
  -10.4164    1.0518   -4.2888 H   0  0  0  0  0  0  0  0  0  0  0  0
   -9.3415    1.6734   -6.4175 H   0  0  0  0  0  0  0  0  0  0  0  0
   -6.8989    2.1003   -6.5032 H   0  0  0  0  0  0  0  0  0  0  0  0
   -5.5349    1.9053   -4.4601 H   0  0  0  0  0  0  0  0  0  0  0  0
   -5.3725    1.4363   -2.0591 H   0  0  0  0  0  0  0  0  0  0  0  0
   -4.9901    3.0990    0.9643 H   0  0  0  0  0  0  0  0  0  0  0  0
   -2.5707    3.5029    0.9702 H   0  0  0  0  0  0  0  0  0  0  0  0
   -0.2621    2.6692    0.6871 H   0  0  0  0  0  0  0  0  0  0  0  0
    2.0269    1.8438    0.3955 H   0  0  0  0  0  0  0  0  0  0  0  0
    4.3222    1.0212    0.0903 H   0  0  0  0  0  0  0  0  0  0  0  0
    5.4528   -1.5201    2.0786 H   0  0  0  0  0  0  0  0  0  0  0  0
    5.6914   -2.0672    4.4564 H   0  0  0  0  0  0  0  0  0  0  0  0
    7.1183   -2.3254    6.4477 H   0  0  0  0  0  0  0  0  0  0  0  0
    9.5576   -1.8924    6.3001 H   0  0  0  0  0  0  0  0  0  0  0  0
   10.5648   -1.1997    4.1608 H   0  0  0  0  0  0  0  0  0  0  0  0
   10.3135   -0.6465    1.7662 H   0  0  0  0  0  0  0  0  0  0  0  0
   10.1006   -0.0985   -0.5755 H   0  0  0  0  0  0  0  0  0  0  0  0
   10.0579    1.0007   -5.0198 H   0  0  0  0  0  0  0  0  0  0  0  0
    8.9003    1.3487   -7.1795 H   0  0  0  0  0  0  0  0  0  0  0  0
    6.4452    0.9874   -7.3420 H   0  0  0  0  0  0  0  0  0  0  0  0
    5.1750    0.2825   -5.3445 H   0  0  0  0  0  0  0  0  0  0  0  0
    5.1593   -0.3199   -2.9431 H   0  0  0  0  0  0  0  0  0  0  0  0
    4.9909   -3.1040   -0.9300 H   0  0  0  0  0  0  0  0  0  0  0  0
    2.5728   -3.5130   -0.9139 H   0  0  0  0  0  0  0  0  0  0  0  0
    0.2660   -2.6844   -0.6113 H   0  0  0  0  0  0  0  0  0  0  0  0
   -2.0236   -1.8596   -0.3148 H   0  0  0  0  0  0  0  0  0  0  0  0
   -4.3199   -1.0332   -0.0258 H   0  0  0  0  0  0  0  0  0  0  0  0
   -5.2408    0.3974    3.0075 H   0  0  0  0  0  0  0  0  0  0  0  0
   -5.3387   -0.1186    5.4290 H   0  0  0  0  0  0  0  0  0  0  0  0
  1  2  4  0
  2  3  4  0
  3  4  4  0
  4  5  4  0
  5  6  4  0
  6  7  4  0
  7  8  4  0
  8  9  4  0
  9 10  4  0
 10 11  4  0
 11 12  4  0
 12 13  4  0
 13 14  4  0
 14 15  4  0
 15 16  4  0
 16 17  4  0
 17 18  4  0
 18 19  1  0
 19 20  4  0
 20 21  4  0
 21 22  4  0
 22 23  4  0
 23 24  4  0
 24 25  4  0
 25 26  4  0
 26 27  4  0
 27 28  4  0
 28 29  1  0
 29 30  4  0
 30 31  4  0
 31 32  4  0
 32 33  4  0
 33 34  4  0
 34 35  4  0
 35 36  4  0
 36 37  4  0
 37 38  4  0
 38 39  4  0
 39 40  4  0
 40 41  4  0
 41 42  4  0
 42 43  4  0
 43 44  4  0
 44 45  4  0
 45 46  4  0
 46 47  4  0
 47 48  4  0
 48 49  4  0
 49 50  4  0
 28 51  4  0
 51 52  4  0
 52 53  4  0
 53 54  4  0
 54 55  4  0
 55 56  4  0
 56 57  4  0
 57 58  4  0
 18 59  4  0
 59 60  4  0
 60 61  4  0
 61 62  4  0
 62  1  4  0
 61  4  4  0
 59  6  4  0
 17  8  4  0
 58 19  4  0
 15 10  4  0
 57 22  4  0
 55 24  4  0
 53 26  4  0
 50 29  4  0
 39 30  4  0
 50 41  4  0
 37 32  4  0
 48 43  4  0
  1 63  1  0
  2 64  1  0
  3 65  1  0
  7 66  1  0
  9 67  1  0
 11 68  1  0
 12 69  1  0
 13 70  1  0
 14 71  1  0
 16 72  1  0
 20 73  1  0
 21 74  1  0
 23 75  1  0
 25 76  1  0
 27 77  1  0
 31 78  1  0
 33 79  1  0
 34 80  1  0
 35 81  1  0
 36 82  1  0
 38 83  1  0
 40 84  1  0
 44 85  1  0
 45 86  1  0
 46 87  1  0
 47 88  1  0
 49 89  1  0
 51 90  1  0
 52 91  1  0
 54 92  1  0
 56 93  1  0
 58 94  1  0
 60 95  1  0
 62 96  1  0
M  END
