
     RDKit          3D

 86 99  0  0  0  0  0  0  0  0999 V2000
  -10.6520   -5.0569   -0.1366 C   0  0  0  0  0  0  0  0  0  0  0  0
  -11.1778   -3.8308   -0.4702 C   0  0  0  0  0  0  0  0  0  0  0  0
  -10.2190   -2.7670   -0.3711 C   0  0  0  0  0  0  0  0  0  0  0  0
  -10.3523   -1.3801   -0.6217 C   0  0  0  0  0  0  0  0  0  0  0  0
   -9.2637   -0.5033   -0.4583 C   0  0  0  0  0  0  0  0  0  0  0  0
   -9.3906    0.8718   -0.7052 C   0  0  0  0  0  0  0  0  0  0  0  0
   -8.3103    1.7573   -0.5462 C   0  0  0  0  0  0  0  0  0  0  0  0
   -7.0569    1.2740   -0.1287 C   0  0  0  0  0  0  0  0  0  0  0  0
   -6.9467   -0.1168    0.1170 C   0  0  0  0  0  0  0  0  0  0  0  0
   -8.0244   -1.0058   -0.0410 C   0  0  0  0  0  0  0  0  0  0  0  0
   -7.8749   -2.3799    0.2121 C   0  0  0  0  0  0  0  0  0  0  0  0
   -8.9752   -3.2432    0.0436 C   0  0  0  0  0  0  0  0  0  0  0  0
   -9.0070   -4.9478    0.2981 S   0  0  0  0  0  0  0  0  0  0  0  0
   -5.9656    2.1835    0.0281 C   0  0  0  0  0  0  0  0  0  0  0  0
   -4.6302    1.7375    0.4567 C   0  0  0  0  0  0  0  0  0  0  0  0
   -4.2830    1.7172    1.8130 C   0  0  0  0  0  0  0  0  0  0  0  0
   -3.0165    1.2878    2.2169 C   0  0  0  0  0  0  0  0  0  0  0  0
   -2.0668    0.8675    1.2733 C   0  0  0  0  0  0  0  0  0  0  0  0
   -0.7890    0.4333    1.6626 C   0  0  0  0  0  0  0  0  0  0  0  0
    0.1615    0.0128    0.7170 C   0  0  0  0  0  0  0  0  0  0  0  0
    1.4400   -0.4205    1.1064 C   0  0  0  0  0  0  0  0  0  0  0  0
    2.3901   -0.8414    0.1615 C   0  0  0  0  0  0  0  0  0  0  0  0
    3.6690   -1.2740    0.5517 C   0  0  0  0  0  0  0  0  0  0  0  0
    4.6186   -1.6942   -0.3933 C   0  0  0  0  0  0  0  0  0  0  0  0
    5.9567   -2.1350    0.0323 C   0  0  0  0  0  0  0  0  0  0  0  0
    6.1676   -3.5090    0.3424 C   0  0  0  0  0  0  0  0  0  0  0  0
    5.0152   -4.8077    0.2890 S   0  0  0  0  0  0  0  0  0  0  0  0
    6.1568   -5.9605    0.7987 C   0  0  0  0  0  0  0  0  0  0  0  0
    7.3915   -5.3988    1.0094 C   0  0  0  0  0  0  0  0  0  0  0  0
    7.4151   -3.9862    0.7512 C   0  0  0  0  0  0  0  0  0  0  0  0
    8.4830   -3.0668    0.8529 C   0  0  0  0  0  0  0  0  0  0  0  0
    8.3128   -1.7066    0.5567 C   0  0  0  0  0  0  0  0  0  0  0  0
    7.0552   -1.2280    0.1464 C   0  0  0  0  0  0  0  0  0  0  0  0
    6.9478    0.1560   -0.1357 C   0  0  0  0  0  0  0  0  0  0  0  0
    8.0329    1.0426   -0.0221 C   0  0  0  0  0  0  0  0  0  0  0  0
    7.8860    2.4099   -0.3110 C   0  0  0  0  0  0  0  0  0  0  0  0
    8.9938    3.2709   -0.1876 C   0  0  0  0  0  0  0  0  0  0  0  0
    9.0298    4.9674   -0.4904 S   0  0  0  0  0  0  0  0  0  0  0  0
   10.6835    5.0788   -0.0913 C   0  0  0  0  0  0  0  0  0  0  0  0
   11.2090    3.8595    0.2669 C   0  0  0  0  0  0  0  0  0  0  0  0
   10.2427    2.7992    0.2168 C   0  0  0  0  0  0  0  0  0  0  0  0
   10.3729    1.4192    0.5043 C   0  0  0  0  0  0  0  0  0  0  0  0
    9.2768    0.5446    0.3866 C   0  0  0  0  0  0  0  0  0  0  0  0
    9.4008   -0.8235    0.6711 C   0  0  0  0  0  0  0  0  0  0  0  0
    4.2689   -1.6773   -1.7491 C   0  0  0  0  0  0  0  0  0  0  0  0
    3.0015   -1.2501   -2.1518 C   0  0  0  0  0  0  0  0  0  0  0  0
    2.0530   -0.8290   -1.2076 C   0  0  0  0  0  0  0  0  0  0  0  0
    0.7750   -0.3957   -1.5966 C   0  0  0  0  0  0  0  0  0  0  0  0
   -0.1747    0.0259   -0.6509 C   0  0  0  0  0  0  0  0  0  0  0  0
   -1.4525    0.4603   -1.0406 C   0  0  0  0  0  0  0  0  0  0  0  0
   -2.4024    0.8818   -0.0961 C   0  0  0  0  0  0  0  0  0  0  0  0
   -3.6799    1.3172   -0.4874 C   0  0  0  0  0  0  0  0  0  0  0  0
   -6.1800    3.5648   -0.2451 C   0  0  0  0  0  0  0  0  0  0  0  0
   -5.0359    4.8678   -0.1380 S   0  0  0  0  0  0  0  0  0  0  0  0
   -6.1775    6.0290   -0.6285 C   0  0  0  0  0  0  0  0  0  0  0  0
   -7.4053    5.4666   -0.8745 C   0  0  0  0  0  0  0  0  0  0  0  0
   -7.4239    4.0467   -0.6589 C   0  0  0  0  0  0  0  0  0  0  0  0
   -8.4842    3.1246   -0.8051 C   0  0  0  0  0  0  0  0  0  0  0  0
  -11.1561   -6.0135   -0.1275 H   0  0  0  0  0  0  0  0  0  0  0  0
  -12.2081   -3.6936   -0.7744 H   0  0  0  0  0  0  0  0  0  0  0  0
  -11.3174   -0.9974   -0.9455 H   0  0  0  0  0  0  0  0  0  0  0  0
  -10.3546    1.2617   -1.0294 H   0  0  0  0  0  0  0  0  0  0  0  0
   -5.9904   -0.5256    0.4427 H   0  0  0  0  0  0  0  0  0  0  0  0
   -6.9191   -2.7839    0.5363 H   0  0  0  0  0  0  0  0  0  0  0  0
   -5.0007    2.0393    2.5647 H   0  0  0  0  0  0  0  0  0  0  0  0
   -2.7781    1.2863    3.2782 H   0  0  0  0  0  0  0  0  0  0  0  0
   -0.5294    0.4225    2.7197 H   0  0  0  0  0  0  0  0  0  0  0  0
    1.7002   -0.4309    2.1634 H   0  0  0  0  0  0  0  0  0  0  0  0
    3.9356   -1.2865    1.6076 H   0  0  0  0  0  0  0  0  0  0  0  0
    5.8701   -6.9961    0.9199 H   0  0  0  0  0  0  0  0  0  0  0  0
    8.2509   -5.9710    1.3369 H   0  0  0  0  0  0  0  0  0  0  0  0
    9.4557   -3.4371    1.1707 H   0  0  0  0  0  0  0  0  0  0  0  0
    5.9878    0.5614   -0.4548 H   0  0  0  0  0  0  0  0  0  0  0  0
    6.9264    2.8102   -0.6288 H   0  0  0  0  0  0  0  0  0  0  0  0
   11.1928    6.0316   -0.1378 H   0  0  0  0  0  0  0  0  0  0  0  0
   12.2445    3.7253    0.5547 H   0  0  0  0  0  0  0  0  0  0  0  0
   11.3418    1.0398    0.8204 H   0  0  0  0  0  0  0  0  0  0  0  0
   10.3683   -1.2097    0.9895 H   0  0  0  0  0  0  0  0  0  0  0  0
    4.9865   -1.9990   -2.5013 H   0  0  0  0  0  0  0  0  0  0  0  0
    2.7609   -1.2503   -3.2125 H   0  0  0  0  0  0  0  0  0  0  0  0
    0.5145   -0.3868   -2.6535 H   0  0  0  0  0  0  0  0  0  0  0  0
   -1.7128    0.4716   -2.0977 H   0  0  0  0  0  0  0  0  0  0  0  0
   -3.9455    1.3315   -1.5436 H   0  0  0  0  0  0  0  0  0  0  0  0
   -5.8956    7.0694   -0.7141 H   0  0  0  0  0  0  0  0  0  0  0  0
   -8.2635    6.0428   -1.1976 H   0  0  0  0  0  0  0  0  0  0  0  0
   -9.4539    3.4985   -1.1278 H   0  0  0  0  0  0  0  0  0  0  0  0
  1  2  4  0
  2  3  4  0
  3  4  4  0
  4  5  4  0
  5  6  4  0
  6  7  4  0
  7  8  4  0
  8  9  4  0
  9 10  4  0
 10 11  4  0
 11 12  4  0
 12 13  4  0
  8 14  4  0
 14 15  1  0
 15 16  4  0
 16 17  4  0
 17 18  4  0
 18 19  4  0
 19 20  4  0
 20 21  4  0
 21 22  4  0
 22 23  4  0
 23 24  4  0
 24 25  1  0
 25 26  4  0
 26 27  4  0
 27 28  4  0
 28 29  4  0
 29 30  4  0
 30 31  4  0
 31 32  4  0
 32 33  4  0
 33 34  4  0
 34 35  4  0
 35 36  4  0
 36 37  4  0
 37 38  4  0
 38 39  4  0
 39 40  4  0
 40 41  4  0
 41 42  4  0
 42 43  4  0
 43 44  4  0
 24 45  4  0
 45 46  4  0
 46 47  4  0
 47 48  4  0
 48 49  4  0
 49 50  4  0
 50 51  4  0
 51 52  4  0
 14 53  4  0
 53 54  4  0
 54 55  4  0
 55 56  4  0
 56 57  4  0
 57 58  4  0
 13  1  4  0
 52 15  4  0
 57 53  4  0
 12  3  4  0
 51 18  4  0
 10  5  4  0
 49 20  4  0
 58  7  4  0
 47 22  4  0
 33 25  4  0
 43 35  4  0
 30 26  4  0
 44 32  4  0
 41 37  4  0
  1 59  1  0
  2 60  1  0
  4 61  1  0
  6 62  1  0
  9 63  1  0
 11 64  1  0
 16 65  1  0
 17 66  1  0
 19 67  1  0
 21 68  1  0
 23 69  1  0
 28 70  1  0
 29 71  1  0
 31 72  1  0
 34 73  1  0
 36 74  1  0
 39 75  1  0
 40 76  1  0
 42 77  1  0
 44 78  1  0
 45 79  1  0
 46 80  1  0
 48 81  1  0
 50 82  1  0
 52 83  1  0
 55 84  1  0
 56 85  1  0
 58 86  1  0
M  END
