
     RDKit          3D

 86 99  0  0  0  0  0  0  0  0999 V2000
   10.7276   -3.2295    3.4457 C   0  0  0  0  0  0  0  0  0  0  0  0
    9.4277   -3.1239    3.0095 C   0  0  0  0  0  0  0  0  0  0  0  0
    9.2483   -2.0835    2.0369 C   0  0  0  0  0  0  0  0  0  0  0  0
    8.0875   -1.6548    1.3494 C   0  0  0  0  0  0  0  0  0  0  0  0
    8.1386   -0.5978    0.4220 C   0  0  0  0  0  0  0  0  0  0  0  0
    6.9877   -0.1710   -0.2636 C   0  0  0  0  0  0  0  0  0  0  0  0
    7.0075    0.8877   -1.2037 C   0  0  0  0  0  0  0  0  0  0  0  0
    8.2404    1.5237   -1.4390 C   0  0  0  0  0  0  0  0  0  0  0  0
    9.3921    1.0985   -0.7542 C   0  0  0  0  0  0  0  0  0  0  0  0
    9.3580    0.0457    0.1723 C   0  0  0  0  0  0  0  0  0  0  0  0
   10.5205   -0.3666    0.8459 C   0  0  0  0  0  0  0  0  0  0  0  0
   10.4499   -1.4272    1.7701 C   0  0  0  0  0  0  0  0  0  0  0  0
   11.7459   -2.0855    2.6967 S   0  0  0  0  0  0  0  0  0  0  0  0
    8.3276    2.5811   -2.3545 C   0  0  0  0  0  0  0  0  0  0  0  0
    7.1794    3.0101   -3.0431 C   0  0  0  0  0  0  0  0  0  0  0  0
    7.0984    4.2879   -4.1985 S   0  0  0  0  0  0  0  0  0  0  0  0
    5.4306    4.0591   -4.4467 C   0  0  0  0  0  0  0  0  0  0  0  0
    4.9350    3.0367   -3.6735 C   0  0  0  0  0  0  0  0  0  0  0  0
    5.9367    2.4093   -2.8444 C   0  0  0  0  0  0  0  0  0  0  0  0
    5.8477    1.3310   -1.9114 C   0  0  0  0  0  0  0  0  0  0  0  0
    4.5264    0.7114   -1.7244 C   0  0  0  0  0  0  0  0  0  0  0  0
    4.1487   -0.4067   -2.4780 C   0  0  0  0  0  0  0  0  0  0  0  0
    2.8936   -0.9937   -2.3002 C   0  0  0  0  0  0  0  0  0  0  0  0
    1.9851   -0.4754   -1.3650 C   0  0  0  0  0  0  0  0  0  0  0  0
    0.7195   -1.0543   -1.1748 C   0  0  0  0  0  0  0  0  0  0  0  0
   -0.1906   -0.5350   -0.2385 C   0  0  0  0  0  0  0  0  0  0  0  0
   -1.4561   -1.1149   -0.0473 C   0  0  0  0  0  0  0  0  0  0  0  0
   -2.3658   -0.5964    0.8889 C   0  0  0  0  0  0  0  0  0  0  0  0
   -3.6306   -1.1781    1.0810 C   0  0  0  0  0  0  0  0  0  0  0  0
   -4.5392   -0.6590    2.0171 C   0  0  0  0  0  0  0  0  0  0  0  0
   -5.8581   -1.2819    2.2070 C   0  0  0  0  0  0  0  0  0  0  0  0
   -5.9517   -2.3290    3.1744 C   0  0  0  0  0  0  0  0  0  0  0  0
   -4.9570   -2.9196    4.0379 C   0  0  0  0  0  0  0  0  0  0  0  0
   -5.4550   -3.9204    4.8373 C   0  0  0  0  0  0  0  0  0  0  0  0
   -7.1170   -4.1722    4.5729 S   0  0  0  0  0  0  0  0  0  0  0  0
   -7.1918   -2.9348    3.3740 C   0  0  0  0  0  0  0  0  0  0  0  0
   -8.3326   -2.5406    2.6529 C   0  0  0  0  0  0  0  0  0  0  0  0
   -8.2402   -1.5144    1.7030 C   0  0  0  0  0  0  0  0  0  0  0  0
   -7.0100   -0.8742    1.4664 C   0  0  0  0  0  0  0  0  0  0  0  0
   -6.9843    0.1529    0.4920 C   0  0  0  0  0  0  0  0  0  0  0  0
   -8.1268    0.5431   -0.2282 C   0  0  0  0  0  0  0  0  0  0  0  0
   -8.0696    1.5677   -1.1910 C   0  0  0  0  0  0  0  0  0  0  0  0
   -9.2220    1.9589   -1.9142 C   0  0  0  0  0  0  0  0  0  0  0  0
   -9.3942    2.9622   -2.9261 C   0  0  0  0  0  0  0  0  0  0  0  0
  -10.6868    3.0378   -3.3893 C   0  0  0  0  0  0  0  0  0  0  0  0
  -11.7068    1.9097   -2.6188 S   0  0  0  0  0  0  0  0  0  0  0  0
  -10.4213    1.2989   -1.6462 C   0  0  0  0  0  0  0  0  0  0  0  0
  -10.4977    0.2706   -0.6866 C   0  0  0  0  0  0  0  0  0  0  0  0
   -9.3437   -0.1049    0.0220 C   0  0  0  0  0  0  0  0  0  0  0  0
   -9.3838   -1.1251    0.9842 C   0  0  0  0  0  0  0  0  0  0  0  0
   -4.1634    0.4619    2.7673 C   0  0  0  0  0  0  0  0  0  0  0  0
   -2.9095    1.0505    2.5876 C   0  0  0  0  0  0  0  0  0  0  0  0
   -2.0012    0.5316    1.6525 C   0  0  0  0  0  0  0  0  0  0  0  0
   -0.7362    1.1109    1.4613 C   0  0  0  0  0  0  0  0  0  0  0  0
    0.1739    0.5911    0.5254 C   0  0  0  0  0  0  0  0  0  0  0  0
    1.4400    1.1701    0.3356 C   0  0  0  0  0  0  0  0  0  0  0  0
    2.3506    0.6509   -0.5995 C   0  0  0  0  0  0  0  0  0  0  0  0
    3.6174    1.2300   -0.7883 C   0  0  0  0  0  0  0  0  0  0  0  0
   11.1286   -3.9250    4.1700 H   0  0  0  0  0  0  0  0  0  0  0  0
    8.6308   -3.7635    3.3685 H   0  0  0  0  0  0  0  0  0  0  0  0
    7.1444   -2.1589    1.5491 H   0  0  0  0  0  0  0  0  0  0  0  0
    6.0478   -0.6815   -0.0562 H   0  0  0  0  0  0  0  0  0  0  0  0
   10.3404    1.5994   -0.9471 H   0  0  0  0  0  0  0  0  0  0  0  0
   11.4731    0.1234    0.6620 H   0  0  0  0  0  0  0  0  0  0  0  0
    9.2776    3.0770   -2.5401 H   0  0  0  0  0  0  0  0  0  0  0  0
    4.8895    4.6817   -5.1459 H   0  0  0  0  0  0  0  0  0  0  0  0
    3.8926    2.7407   -3.6932 H   0  0  0  0  0  0  0  0  0  0  0  0
    4.8347   -0.8274   -3.2108 H   0  0  0  0  0  0  0  0  0  0  0  0
    2.6316   -1.8619   -2.9010 H   0  0  0  0  0  0  0  0  0  0  0  0
    0.4383   -1.9243   -1.7655 H   0  0  0  0  0  0  0  0  0  0  0  0
   -1.7386   -1.9853   -0.6373 H   0  0  0  0  0  0  0  0  0  0  0  0
   -3.9189   -2.0503    0.4956 H   0  0  0  0  0  0  0  0  0  0  0  0
   -3.9174   -2.6143    4.0628 H   0  0  0  0  0  0  0  0  0  0  0  0
   -4.9183   -4.5146    5.5640 H   0  0  0  0  0  0  0  0  0  0  0  0
   -9.2808   -3.0394    2.8400 H   0  0  0  0  0  0  0  0  0  0  0  0
   -6.0463    0.6671    0.2847 H   0  0  0  0  0  0  0  0  0  0  0  0
   -7.1284    2.0748   -1.3913 H   0  0  0  0  0  0  0  0  0  0  0  0
   -8.5976    3.5976   -3.2931 H   0  0  0  0  0  0  0  0  0  0  0  0
  -11.0817    3.7028   -4.1451 H   0  0  0  0  0  0  0  0  0  0  0  0
  -11.4484   -0.2232   -0.5029 H   0  0  0  0  0  0  0  0  0  0  0  0
  -10.3302   -1.6290    1.1779 H   0  0  0  0  0  0  0  0  0  0  0  0
   -4.8498    0.8831    3.4995 H   0  0  0  0  0  0  0  0  0  0  0  0
   -2.6479    1.9198    3.1870 H   0  0  0  0  0  0  0  0  0  0  0  0
   -0.4541    1.9808    2.0520 H   0  0  0  0  0  0  0  0  0  0  0  0
    1.7229    2.0398    0.9264 H   0  0  0  0  0  0  0  0  0  0  0  0
    3.9066    2.0999   -0.1999 H   0  0  0  0  0  0  0  0  0  0  0  0
  1  2  4  0
  2  3  4  0
  3  4  4  0
  4  5  4  0
  5  6  4  0
  6  7  4  0
  7  8  4  0
  8  9  4  0
  9 10  4  0
 10 11  4  0
 11 12  4  0
 12 13  4  0
  8 14  4  0
 14 15  4  0
 15 16  4  0
 16 17  4  0
 17 18  4  0
 18 19  4  0
 19 20  4  0
 20 21  1  0
 21 22  4  0
 22 23  4  0
 23 24  4  0
 24 25  4  0
 25 26  4  0
 26 27  4  0
 27 28  4  0
 28 29  4  0
 29 30  4  0
 30 31  1  0
 31 32  4  0
 32 33  4  0
 33 34  4  0
 34 35  4  0
 35 36  4  0
 36 37  4  0
 37 38  4  0
 38 39  4  0
 39 40  4  0
 40 41  4  0
 41 42  4  0
 42 43  4  0
 43 44  4  0
 44 45  4  0
 45 46  4  0
 46 47  4  0
 47 48  4  0
 48 49  4  0
 49 50  4  0
 30 51  4  0
 51 52  4  0
 52 53  4  0
 53 54  4  0
 54 55  4  0
 55 56  4  0
 56 57  4  0
 57 58  4  0
 13  1  4  0
 19 15  4  0
 58 21  4  0
 12  3  4  0
 57 24  4  0
 10  5  4  0
 55 26  4  0
 20  7  4  0
 53 28  4  0
 39 31  4  0
 49 41  4  0
 36 32  4  0
 50 38  4  0
 47 43  4  0
  1 59  1  0
  2 60  1  0
  4 61  1  0
  6 62  1  0
  9 63  1  0
 11 64  1  0
 14 65  1  0
 17 66  1  0
 18 67  1  0
 22 68  1  0
 23 69  1  0
 25 70  1  0
 27 71  1  0
 29 72  1  0
 33 73  1  0
 34 74  1  0
 37 75  1  0
 40 76  1  0
 42 77  1  0
 44 78  1  0
 45 79  1  0
 48 80  1  0
 50 81  1  0
 51 82  1  0
 52 83  1  0
 54 84  1  0
 56 85  1  0
 58 86  1  0
M  END
