
     RDKit          3D

 80 91  0  0  0  0  0  0  0  0999 V2000
   13.0203   -1.8597   -0.6272 C   0  0  0  0  0  0  0  0  0  0  0  0
   12.6188   -0.5232   -0.6119 C   0  0  0  0  0  0  0  0  0  0  0  0
   11.2563   -0.1803   -0.6133 C   0  0  0  0  0  0  0  0  0  0  0  0
   10.8419    1.1620   -0.5979 C   0  0  0  0  0  0  0  0  0  0  0  0
    9.4873    1.5196   -0.5991 C   0  0  0  0  0  0  0  0  0  0  0  0
    9.1536    2.8970   -0.5812 C   0  0  0  0  0  0  0  0  0  0  0  0
    7.7781    3.1237   -0.5856 C   0  0  0  0  0  0  0  0  0  0  0  0
    7.2353    4.3829   -0.5659 C   0  0  0  0  0  0  0  0  0  0  0  0
    5.5196    4.3167   -0.5745 S   0  0  0  0  0  0  0  0  0  0  0  0
    5.4989    2.5896   -0.6082 C   0  0  0  0  0  0  0  0  0  0  0  0
    4.2039    1.9082   -0.6523 C   0  0  0  0  0  0  0  0  0  0  0  0
    3.8054    1.2319   -1.8091 C   0  0  0  0  0  0  0  0  0  0  0  0
    2.5730    0.5757   -1.8537 C   0  0  0  0  0  0  0  0  0  0  0  0
    1.7160    0.5820   -0.7420 C   0  0  0  0  0  0  0  0  0  0  0  0
    0.4736   -0.0723   -0.7720 C   0  0  0  0  0  0  0  0  0  0  0  0
   -0.3853   -0.0655    0.3400 C   0  0  0  0  0  0  0  0  0  0  0  0
   -1.6282   -0.7201    0.3093 C   0  0  0  0  0  0  0  0  0  0  0  0
   -2.4880   -0.7131    1.4201 C   0  0  0  0  0  0  0  0  0  0  0  0
   -3.7311   -1.3679    1.3884 C   0  0  0  0  0  0  0  0  0  0  0  0
   -4.5847   -1.3568    2.5005 C   0  0  0  0  0  0  0  0  0  0  0  0
   -5.8805   -2.0366    2.4382 C   0  0  0  0  0  0  0  0  0  0  0  0
   -7.0045   -1.7719    1.6817 C   0  0  0  0  0  0  0  0  0  0  0  0
   -7.1177   -0.6951    0.7949 C   0  0  0  0  0  0  0  0  0  0  0  0
   -8.3706   -0.6422    0.1328 C   0  0  0  0  0  0  0  0  0  0  0  0
   -8.5976    0.3923   -0.7844 C   0  0  0  0  0  0  0  0  0  0  0  0
   -9.8105    0.5130   -1.4832 C   0  0  0  0  0  0  0  0  0  0  0  0
  -10.0235    1.5547   -2.4018 C   0  0  0  0  0  0  0  0  0  0  0  0
  -11.2320    1.6649   -3.0911 C   0  0  0  0  0  0  0  0  0  0  0  0
  -12.2432    0.7357   -2.8710 C   0  0  0  0  0  0  0  0  0  0  0  0
  -12.0470   -0.3044   -1.9615 C   0  0  0  0  0  0  0  0  0  0  0  0
  -10.8360   -0.4290   -1.2602 C   0  0  0  0  0  0  0  0  0  0  0  0
  -10.6281   -1.4727   -0.3428 C   0  0  0  0  0  0  0  0  0  0  0  0
   -9.4256   -1.6104    0.3626 C   0  0  0  0  0  0  0  0  0  0  0  0
   -9.2958   -2.6910    1.2705 C   0  0  0  0  0  0  0  0  0  0  0  0
   -8.0555   -2.7217    1.9063 C   0  0  0  0  0  0  0  0  0  0  0  0
   -7.7187   -3.6811    2.8264 C   0  0  0  0  0  0  0  0  0  0  0  0
   -6.1267   -3.4363    3.4207 S   0  0  0  0  0  0  0  0  0  0  0  0
   -4.1864   -0.6802    3.6571 C   0  0  0  0  0  0  0  0  0  0  0  0
   -2.9527   -0.0260    3.7026 C   0  0  0  0  0  0  0  0  0  0  0  0
   -2.0945   -0.0340    2.5920 C   0  0  0  0  0  0  0  0  0  0  0  0
   -0.8520    0.6200    2.6223 C   0  0  0  0  0  0  0  0  0  0  0  0
    0.0076    0.6124    1.5107 C   0  0  0  0  0  0  0  0  0  0  0  0
    1.2507    1.2667    1.5414 C   0  0  0  0  0  0  0  0  0  0  0  0
    2.1102    1.2605    0.4302 C   0  0  0  0  0  0  0  0  0  0  0  0
    3.3533    1.9160    0.4616 C   0  0  0  0  0  0  0  0  0  0  0  0
    6.7851    2.0889   -0.6079 C   0  0  0  0  0  0  0  0  0  0  0  0
    7.0960    0.7244   -0.6204 C   0  0  0  0  0  0  0  0  0  0  0  0
    8.4906    0.4662   -0.6172 C   0  0  0  0  0  0  0  0  0  0  0  0
    8.9239   -0.8664   -0.6317 C   0  0  0  0  0  0  0  0  0  0  0  0
   10.2877   -1.2051   -0.6302 C   0  0  0  0  0  0  0  0  0  0  0  0
   10.7080   -2.5459   -0.6455 C   0  0  0  0  0  0  0  0  0  0  0  0
   12.0654   -2.8708   -0.6440 C   0  0  0  0  0  0  0  0  0  0  0  0
   14.0781   -2.1093   -0.6260 H   0  0  0  0  0  0  0  0  0  0  0  0
   13.3812    0.2526   -0.5989 H   0  0  0  0  0  0  0  0  0  0  0  0
   11.6002    1.9438   -0.5845 H   0  0  0  0  0  0  0  0  0  0  0  0
    9.8951    3.6857   -0.5651 H   0  0  0  0  0  0  0  0  0  0  0  0
    7.7378    5.3400   -0.5463 H   0  0  0  0  0  0  0  0  0  0  0  0
    4.4497    1.2170   -2.6857 H   0  0  0  0  0  0  0  0  0  0  0  0
    2.2857    0.0609   -2.7680 H   0  0  0  0  0  0  0  0  0  0  0  0
    0.1690   -0.5956   -1.6767 H   0  0  0  0  0  0  0  0  0  0  0  0
   -1.9318   -1.2448   -0.5951 H   0  0  0  0  0  0  0  0  0  0  0  0
   -4.0398   -1.8978    0.4886 H   0  0  0  0  0  0  0  0  0  0  0  0
   -6.3346    0.0337    0.6263 H   0  0  0  0  0  0  0  0  0  0  0  0
   -7.8136    1.1266   -0.9653 H   0  0  0  0  0  0  0  0  0  0  0  0
   -9.2450    2.2913   -2.5879 H   0  0  0  0  0  0  0  0  0  0  0  0
  -11.3820    2.4759   -3.7989 H   0  0  0  0  0  0  0  0  0  0  0  0
  -13.1855    0.8189   -3.4062 H   0  0  0  0  0  0  0  0  0  0  0  0
  -12.8503   -1.0207   -1.8036 H   0  0  0  0  0  0  0  0  0  0  0  0
  -11.4285   -2.1931   -0.1796 H   0  0  0  0  0  0  0  0  0  0  0  0
  -10.0820   -3.4140    1.4468 H   0  0  0  0  0  0  0  0  0  0  0  0
   -8.3078   -4.5123    3.1884 H   0  0  0  0  0  0  0  0  0  0  0  0
   -4.8355   -0.6531    4.5296 H   0  0  0  0  0  0  0  0  0  0  0  0
   -2.6674    0.4919    4.6158 H   0  0  0  0  0  0  0  0  0  0  0  0
   -0.5491    1.1441    3.5271 H   0  0  0  0  0  0  0  0  0  0  0  0
    1.5542    1.7912    2.4459 H   0  0  0  0  0  0  0  0  0  0  0  0
    3.6660    2.4371    1.3649 H   0  0  0  0  0  0  0  0  0  0  0  0
    6.3535   -0.0640   -0.6271 H   0  0  0  0  0  0  0  0  0  0  0  0
    8.1857   -1.6674   -0.6446 H   0  0  0  0  0  0  0  0  0  0  0  0
    9.9769   -3.3513   -0.6587 H   0  0  0  0  0  0  0  0  0  0  0  0
   12.3751   -3.9126   -0.6560 H   0  0  0  0  0  0  0  0  0  0  0  0
  1  2  4  0
  2  3  4  0
  3  4  4  0
  4  5  4  0
  5  6  4  0
  6  7  4  0
  7  8  4  0
  8  9  4  0
  9 10  4  0
 10 11  1  0
 11 12  4  0
 12 13  4  0
 13 14  4  0
 14 15  4  0
 15 16  4  0
 16 17  4  0
 17 18  4  0
 18 19  4  0
 19 20  4  0
 20 21  1  0
 21 22  4  0
 22 23  4  0
 23 24  4  0
 24 25  4  0
 25 26  4  0
 26 27  4  0
 27 28  4  0
 28 29  4  0
 29 30  4  0
 30 31  4  0
 31 32  4  0
 32 33  4  0
 33 34  4  0
 34 35  4  0
 35 36  4  0
 36 37  4  0
 20 38  4  0
 38 39  4  0
 39 40  4  0
 40 41  4  0
 41 42  4  0
 42 43  4  0
 43 44  4  0
 44 45  4  0
 10 46  4  0
 46 47  4  0
 47 48  4  0
 48 49  4  0
 49 50  4  0
 50 51  4  0
 51 52  4  0
 52  1  4  0
 50  3  4  0
 48  5  4  0
 46  7  4  0
 45 11  4  0
 44 14  4  0
 42 16  4  0
 40 18  4  0
 37 21  4  0
 35 22  4  0
 33 24  4  0
 31 26  4  0
  1 53  1  0
  2 54  1  0
  4 55  1  0
  6 56  1  0
  8 57  1  0
 12 58  1  0
 13 59  1  0
 15 60  1  0
 17 61  1  0
 19 62  1  0
 23 63  1  0
 25 64  1  0
 27 65  1  0
 28 66  1  0
 29 67  1  0
 30 68  1  0
 32 69  1  0
 34 70  1  0
 36 71  1  0
 38 72  1  0
 39 73  1  0
 41 74  1  0
 43 75  1  0
 45 76  1  0
 47 77  1  0
 49 78  1  0
 51 79  1  0
 52 80  1  0
M  END
