
     RDKit          3D

 78 89  0  0  0  0  0  0  0  0999 V2000
   10.3790    0.8593   -2.4378 C   0  0  0  0  0  0  0  0  0  0  0  0
    9.0040    1.0527   -2.3208 C   0  0  0  0  0  0  0  0  0  0  0  0
    8.3420    0.7735   -1.1155 C   0  0  0  0  0  0  0  0  0  0  0  0
    9.0771    0.2920   -0.0116 C   0  0  0  0  0  0  0  0  0  0  0  0
   10.4742    0.0971   -0.1339 C   0  0  0  0  0  0  0  0  0  0  0  0
   11.1097    0.3845   -1.3507 C   0  0  0  0  0  0  0  0  0  0  0  0
   11.1988   -0.3799    0.9638 C   0  0  0  0  0  0  0  0  0  0  0  0
   10.5574   -0.6637    2.1699 C   0  0  0  0  0  0  0  0  0  0  0  0
    9.1760   -0.4778    2.3086 C   0  0  0  0  0  0  0  0  0  0  0  0
    8.5373   -0.7654    3.5205 C   0  0  0  0  0  0  0  0  0  0  0  0
    7.1659   -0.5817    3.6552 C   0  0  0  0  0  0  0  0  0  0  0  0
    6.4183   -0.1063    2.5784 C   0  0  0  0  0  0  0  0  0  0  0  0
    7.0176    0.2006    1.3359 C   0  0  0  0  0  0  0  0  0  0  0  0
    8.4183    0.0057    1.2116 C   0  0  0  0  0  0  0  0  0  0  0  0
    6.2869    0.6887    0.2182 C   0  0  0  0  0  0  0  0  0  0  0  0
    4.8347    0.9245    0.2639 C   0  0  0  0  0  0  0  0  0  0  0  0
    4.3234    2.1470    0.7153 C   0  0  0  0  0  0  0  0  0  0  0  0
    2.9451    2.3724    0.7512 C   0  0  0  0  0  0  0  0  0  0  0  0
    2.0446    1.3809    0.3327 C   0  0  0  0  0  0  0  0  0  0  0  0
    0.6563    1.5931    0.3598 C   0  0  0  0  0  0  0  0  0  0  0  0
   -0.2450    0.6015   -0.0630 C   0  0  0  0  0  0  0  0  0  0  0  0
   -1.6334    0.8158   -0.0393 C   0  0  0  0  0  0  0  0  0  0  0  0
   -2.5351   -0.1745   -0.4623 C   0  0  0  0  0  0  0  0  0  0  0  0
   -3.9239    0.0414   -0.4386 C   0  0  0  0  0  0  0  0  0  0  0  0
   -4.8255   -0.9502   -0.8566 C   0  0  0  0  0  0  0  0  0  0  0  0
   -6.2766   -0.7061   -0.8261 C   0  0  0  0  0  0  0  0  0  0  0  0
   -6.8989   -0.2793   -2.0140 C   0  0  0  0  0  0  0  0  0  0  0  0
   -8.2720   -0.0173   -2.0718 C   0  0  0  0  0  0  0  0  0  0  0  0
   -9.0543   -0.1846   -0.9096 C   0  0  0  0  0  0  0  0  0  0  0  0
  -10.4444    0.0798   -0.9589 C   0  0  0  0  0  0  0  0  0  0  0  0
  -11.0262    0.5041   -2.1625 C   0  0  0  0  0  0  0  0  0  0  0  0
  -10.2490    0.6673   -3.3073 C   0  0  0  0  0  0  0  0  0  0  0  0
   -8.8806    0.4086   -3.2621 C   0  0  0  0  0  0  0  0  0  0  0  0
  -11.2159   -0.0872    0.1964 C   0  0  0  0  0  0  0  0  0  0  0  0
  -10.6277   -0.5107    1.3887 C   0  0  0  0  0  0  0  0  0  0  0  0
   -9.2543   -0.7779    1.4556 C   0  0  0  0  0  0  0  0  0  0  0  0
   -8.6694   -1.2045    2.6537 C   0  0  0  0  0  0  0  0  0  0  0  0
   -7.3066   -1.4717    2.7169 C   0  0  0  0  0  0  0  0  0  0  0  0
   -6.5133   -1.3135    1.5813 C   0  0  0  0  0  0  0  0  0  0  0  0
   -7.0561   -0.8812    0.3500 C   0  0  0  0  0  0  0  0  0  0  0  0
   -8.4496   -0.6154    0.2991 C   0  0  0  0  0  0  0  0  0  0  0  0
   -4.3156   -2.1720   -1.3107 C   0  0  0  0  0  0  0  0  0  0  0  0
   -2.9376   -2.4004   -1.3420 C   0  0  0  0  0  0  0  0  0  0  0  0
   -2.0360   -1.4111   -0.9202 C   0  0  0  0  0  0  0  0  0  0  0  0
   -0.6477   -1.6251   -0.9442 C   0  0  0  0  0  0  0  0  0  0  0  0
    0.2541   -0.6335   -0.5215 C   0  0  0  0  0  0  0  0  0  0  0  0
    1.6429   -0.8465   -0.5471 C   0  0  0  0  0  0  0  0  0  0  0  0
    2.5448    0.1452   -0.1267 C   0  0  0  0  0  0  0  0  0  0  0  0
    3.9344   -0.0674   -0.1557 C   0  0  0  0  0  0  0  0  0  0  0  0
    6.9619    0.9645   -0.9855 C   0  0  0  0  0  0  0  0  0  0  0  0
   10.8811    1.0790   -3.3764 H   0  0  0  0  0  0  0  0  0  0  0  0
    8.4504    1.4245   -3.1804 H   0  0  0  0  0  0  0  0  0  0  0  0
   12.1822    0.2399   -1.4606 H   0  0  0  0  0  0  0  0  0  0  0  0
   12.2727   -0.5358    0.8909 H   0  0  0  0  0  0  0  0  0  0  0  0
   11.1506   -1.0332    3.0036 H   0  0  0  0  0  0  0  0  0  0  0  0
    9.1046   -1.1367    4.3710 H   0  0  0  0  0  0  0  0  0  0  0  0
    6.6748   -0.8083    4.5979 H   0  0  0  0  0  0  0  0  0  0  0  0
    5.3471    0.0227    2.7220 H   0  0  0  0  0  0  0  0  0  0  0  0
    5.0009    2.9328    1.0439 H   0  0  0  0  0  0  0  0  0  0  0  0
    2.5813    3.3333    1.1083 H   0  0  0  0  0  0  0  0  0  0  0  0
    0.2703    2.5472    0.7147 H   0  0  0  0  0  0  0  0  0  0  0  0
   -2.0208    1.7699    0.3144 H   0  0  0  0  0  0  0  0  0  0  0  0
   -4.3170    0.9947   -0.0876 H   0  0  0  0  0  0  0  0  0  0  0  0
   -6.2897   -0.1477   -2.9078 H   0  0  0  0  0  0  0  0  0  0  0  0
  -12.0926    0.7109   -2.2167 H   0  0  0  0  0  0  0  0  0  0  0  0
  -10.7095    0.9963   -4.2351 H   0  0  0  0  0  0  0  0  0  0  0  0
   -8.2902    0.5421   -4.1661 H   0  0  0  0  0  0  0  0  0  0  0  0
  -12.2852    0.1109    0.1799 H   0  0  0  0  0  0  0  0  0  0  0  0
  -11.2564   -0.6309    2.2683 H   0  0  0  0  0  0  0  0  0  0  0  0
   -9.2729   -1.3337    3.5493 H   0  0  0  0  0  0  0  0  0  0  0  0
   -6.8580   -1.8043    3.6493 H   0  0  0  0  0  0  0  0  0  0  0  0
   -5.4515   -1.5364    1.6696 H   0  0  0  0  0  0  0  0  0  0  0  0
   -4.9937   -2.9568   -1.6404 H   0  0  0  0  0  0  0  0  0  0  0  0
   -2.5745   -3.3614   -1.6995 H   0  0  0  0  0  0  0  0  0  0  0  0
   -0.2624   -2.5797   -1.2984 H   0  0  0  0  0  0  0  0  0  0  0  0
    2.0302   -1.8002   -0.9020 H   0  0  0  0  0  0  0  0  0  0  0  0
    4.3284   -1.0196   -0.5084 H   0  0  0  0  0  0  0  0  0  0  0  0
    6.3901    1.3386   -1.8343 H   0  0  0  0  0  0  0  0  0  0  0  0
  1  2  4  0
  2  3  4  0
  3  4  4  0
  4  5  4  0
  5  6  4  0
  5  7  4  0
  7  8  4  0
  8  9  4  0
  9 10  4  0
 10 11  4  0
 11 12  4  0
 12 13  4  0
 13 14  4  0
 13 15  4  0
 15 16  1  0
 16 17  4  0
 17 18  4  0
 18 19  4  0
 19 20  4  0
 20 21  4  0
 21 22  4  0
 22 23  4  0
 23 24  4  0
 24 25  4  0
 25 26  1  0
 26 27  4  0
 27 28  4  0
 28 29  4  0
 29 30  4  0
 30 31  4  0
 31 32  4  0
 32 33  4  0
 30 34  4  0
 34 35  4  0
 35 36  4  0
 36 37  4  0
 37 38  4  0
 38 39  4  0
 39 40  4  0
 40 41  4  0
 25 42  4  0
 42 43  4  0
 43 44  4  0
 44 45  4  0
 45 46  4  0
 46 47  4  0
 47 48  4  0
 48 49  4  0
 15 50  4  0
  6  1  4  0
 14  9  4  0
 49 16  4  0
 50  3  4  0
 14  4  4  0
 48 19  4  0
 46 21  4  0
 44 23  4  0
 40 26  4  0
 33 28  4  0
 41 36  4  0
 41 29  4  0
  1 51  1  0
  2 52  1  0
  6 53  1  0
  7 54  1  0
  8 55  1  0
 10 56  1  0
 11 57  1  0
 12 58  1  0
 17 59  1  0
 18 60  1  0
 20 61  1  0
 22 62  1  0
 24 63  1  0
 27 64  1  0
 31 65  1  0
 32 66  1  0
 33 67  1  0
 34 68  1  0
 35 69  1  0
 37 70  1  0
 38 71  1  0
 39 72  1  0
 42 73  1  0
 43 74  1  0
 45 75  1  0
 47 76  1  0
 49 77  1  0
 50 78  1  0
M  END
