
     RDKit          3D

 78 89  0  0  0  0  0  0  0  0999 V2000
   13.2073   -0.7569    0.7611 C   0  0  0  0  0  0  0  0  0  0  0  0
   12.7215    0.2192   -0.1082 C   0  0  0  0  0  0  0  0  0  0  0  0
   11.3520    0.2973   -0.4009 C   0  0  0  0  0  0  0  0  0  0  0  0
   10.4627   -0.6262    0.1955 C   0  0  0  0  0  0  0  0  0  0  0  0
   10.9564   -1.6156    1.0770 C   0  0  0  0  0  0  0  0  0  0  0  0
   12.3312   -1.6681    1.3498 C   0  0  0  0  0  0  0  0  0  0  0  0
   10.0604   -2.5223    1.6588 C   0  0  0  0  0  0  0  0  0  0  0  0
    8.6937   -2.4559    1.3767 C   0  0  0  0  0  0  0  0  0  0  0  0
    8.1874   -1.4811    0.5062 C   0  0  0  0  0  0  0  0  0  0  0  0
    6.8162   -1.4015    0.2142 C   0  0  0  0  0  0  0  0  0  0  0  0
    6.3052   -0.4269   -0.6579 C   0  0  0  0  0  0  0  0  0  0  0  0
    4.8647   -0.3568   -0.9491 C   0  0  0  0  0  0  0  0  0  0  0  0
    4.3897   -0.4244   -2.2655 C   0  0  0  0  0  0  0  0  0  0  0  0
    3.0203   -0.3613   -2.5398 C   0  0  0  0  0  0  0  0  0  0  0  0
    2.0863   -0.2271   -1.5024 C   0  0  0  0  0  0  0  0  0  0  0  0
    0.7071   -0.1626   -1.7606 C   0  0  0  0  0  0  0  0  0  0  0  0
   -0.2269   -0.0271   -0.7198 C   0  0  0  0  0  0  0  0  0  0  0  0
   -1.6066    0.0373   -0.9777 C   0  0  0  0  0  0  0  0  0  0  0  0
   -2.5414    0.1721    0.0621 C   0  0  0  0  0  0  0  0  0  0  0  0
   -3.9228    0.2353   -0.1962 C   0  0  0  0  0  0  0  0  0  0  0  0
   -4.8626    0.3717    0.8395 C   0  0  0  0  0  0  0  0  0  0  0  0
   -6.3037    0.4338    0.5495 C   0  0  0  0  0  0  0  0  0  0  0  0
   -6.9399   -0.5962   -0.1617 C   0  0  0  0  0  0  0  0  0  0  0  0
   -8.3141   -0.5523   -0.4483 C   0  0  0  0  0  0  0  0  0  0  0  0
   -9.0767    0.5535   -0.0129 C   0  0  0  0  0  0  0  0  0  0  0  0
   -8.4549    1.5993    0.7038 C   0  0  0  0  0  0  0  0  0  0  0  0
   -7.0788    1.5244    0.9753 C   0  0  0  0  0  0  0  0  0  0  0  0
   -9.2258    2.6909    1.1271 C   0  0  0  0  0  0  0  0  0  0  0  0
  -10.5938    2.7515    0.8493 C   0  0  0  0  0  0  0  0  0  0  0  0
  -11.2270    1.7219    0.1404 C   0  0  0  0  0  0  0  0  0  0  0  0
  -12.5994    1.7669   -0.1466 C   0  0  0  0  0  0  0  0  0  0  0  0
  -13.2114    0.7324   -0.8536 C   0  0  0  0  0  0  0  0  0  0  0  0
  -12.4603   -0.3611   -1.2832 C   0  0  0  0  0  0  0  0  0  0  0  0
  -11.0861   -0.4349   -1.0117 C   0  0  0  0  0  0  0  0  0  0  0  0
  -10.4643    0.6136   -0.2950 C   0  0  0  0  0  0  0  0  0  0  0  0
  -10.3146   -1.5255   -1.4348 C   0  0  0  0  0  0  0  0  0  0  0  0
   -8.9466   -1.5834   -1.1565 C   0  0  0  0  0  0  0  0  0  0  0  0
   -4.3871    0.4454    2.1555 C   0  0  0  0  0  0  0  0  0  0  0  0
   -3.0176    0.3830    2.4300 C   0  0  0  0  0  0  0  0  0  0  0  0
   -2.0839    0.2465    1.3929 C   0  0  0  0  0  0  0  0  0  0  0  0
   -0.7047    0.1823    1.6513 C   0  0  0  0  0  0  0  0  0  0  0  0
    0.2296    0.0460    0.6108 C   0  0  0  0  0  0  0  0  0  0  0  0
    1.6093   -0.0191    0.8685 C   0  0  0  0  0  0  0  0  0  0  0  0
    2.5437   -0.1556   -0.1716 C   0  0  0  0  0  0  0  0  0  0  0  0
    3.9248   -0.2215    0.0867 C   0  0  0  0  0  0  0  0  0  0  0  0
    7.2047    0.4792   -1.2421 C   0  0  0  0  0  0  0  0  0  0  0  0
    8.5818    0.4271   -0.9704 C   0  0  0  0  0  0  0  0  0  0  0  0
    9.0762   -0.5600   -0.0899 C   0  0  0  0  0  0  0  0  0  0  0  0
    9.4774    1.3350   -1.5522 C   0  0  0  0  0  0  0  0  0  0  0  0
   10.8447    1.2710   -1.2715 C   0  0  0  0  0  0  0  0  0  0  0  0
   14.2705   -0.8074    0.9804 H   0  0  0  0  0  0  0  0  0  0  0  0
   13.4216    0.9204   -0.5567 H   0  0  0  0  0  0  0  0  0  0  0  0
   12.7305   -2.4216    2.0250 H   0  0  0  0  0  0  0  0  0  0  0  0
   10.4189   -3.2912    2.3395 H   0  0  0  0  0  0  0  0  0  0  0  0
    8.0260   -3.1757    1.8453 H   0  0  0  0  0  0  0  0  0  0  0  0
    6.1322   -2.1189    0.6656 H   0  0  0  0  0  0  0  0  0  0  0  0
    5.0867   -0.5404   -3.0932 H   0  0  0  0  0  0  0  0  0  0  0  0
    2.6902   -0.4212   -3.5745 H   0  0  0  0  0  0  0  0  0  0  0  0
    0.3546   -0.2184   -2.7890 H   0  0  0  0  0  0  0  0  0  0  0  0
   -1.9597   -0.0184   -2.0060 H   0  0  0  0  0  0  0  0  0  0  0  0
   -4.2752    0.1886   -1.2258 H   0  0  0  0  0  0  0  0  0  0  0  0
   -6.3536   -1.4541   -0.4881 H   0  0  0  0  0  0  0  0  0  0  0  0
   -6.5968    2.3361    1.5184 H   0  0  0  0  0  0  0  0  0  0  0  0
   -8.7665    3.5080    1.6792 H   0  0  0  0  0  0  0  0  0  0  0  0
  -11.1614    3.6134    1.1930 H   0  0  0  0  0  0  0  0  0  0  0  0
  -13.2033    2.6107    0.1797 H   0  0  0  0  0  0  0  0  0  0  0  0
  -14.2756    0.7784   -1.0698 H   0  0  0  0  0  0  0  0  0  0  0  0
  -12.9568   -1.1575   -1.8330 H   0  0  0  0  0  0  0  0  0  0  0  0
  -10.7729   -2.3432   -1.9865 H   0  0  0  0  0  0  0  0  0  0  0  0
   -8.3781   -2.4451   -1.4994 H   0  0  0  0  0  0  0  0  0  0  0  0
   -5.0860    0.5402    2.9844 H   0  0  0  0  0  0  0  0  0  0  0  0
   -2.6879    0.4393    3.4650 H   0  0  0  0  0  0  0  0  0  0  0  0
   -0.3530    0.2398    2.6799 H   0  0  0  0  0  0  0  0  0  0  0  0
    1.9631    0.0371    1.8967 H   0  0  0  0  0  0  0  0  0  0  0  0
    4.2787   -0.1552    1.1147 H   0  0  0  0  0  0  0  0  0  0  0  0
    6.8215    1.2477   -1.9120 H   0  0  0  0  0  0  0  0  0  0  0  0
    9.1175    2.1043   -2.2321 H   0  0  0  0  0  0  0  0  0  0  0  0
   11.5113    1.9914   -1.7404 H   0  0  0  0  0  0  0  0  0  0  0  0
  1  2  4  0
  2  3  4  0
  3  4  4  0
  4  5  4  0
  5  6  4  0
  5  7  4  0
  7  8  4  0
  8  9  4  0
  9 10  4  0
 10 11  4  0
 11 12  1  0
 12 13  4  0
 13 14  4  0
 14 15  4  0
 15 16  4  0
 16 17  4  0
 17 18  4  0
 18 19  4  0
 19 20  4  0
 20 21  4  0
 21 22  1  0
 22 23  4  0
 23 24  4  0
 24 25  4  0
 25 26  4  0
 26 27  4  0
 26 28  4  0
 28 29  4  0
 29 30  4  0
 30 31  4  0
 31 32  4  0
 32 33  4  0
 33 34  4  0
 34 35  4  0
 34 36  4  0
 36 37  4  0
 21 38  4  0
 38 39  4  0
 39 40  4  0
 40 41  4  0
 41 42  4  0
 42 43  4  0
 43 44  4  0
 44 45  4  0
 11 46  4  0
 46 47  4  0
 47 48  4  0
 47 49  4  0
 49 50  4  0
  6  1  4  0
 48  9  4  0
 50  3  4  0
 48  4  4  0
 45 12  4  0
 44 15  4  0
 42 17  4  0
 40 19  4  0
 27 22  4  0
 35 30  4  0
 37 24  4  0
 35 25  4  0
  1 51  1  0
  2 52  1  0
  6 53  1  0
  7 54  1  0
  8 55  1  0
 10 56  1  0
 13 57  1  0
 14 58  1  0
 16 59  1  0
 18 60  1  0
 20 61  1  0
 23 62  1  0
 27 63  1  0
 28 64  1  0
 29 65  1  0
 31 66  1  0
 32 67  1  0
 33 68  1  0
 36 69  1  0
 37 70  1  0
 38 71  1  0
 39 72  1  0
 41 73  1  0
 43 74  1  0
 45 75  1  0
 46 76  1  0
 49 77  1  0
 50 78  1  0
M  END
