
     RDKit          3D

110125  0  0  0  0  0  0  0  0999 V2000
    8.5581    3.3753   -7.5567 C   0  0  0  0  0  0  0  0  0  0  0  0
    7.1957    3.6420   -7.4651 C   0  0  0  0  0  0  0  0  0  0  0  0
    6.4938    3.2947   -6.3098 C   0  0  0  0  0  0  0  0  0  0  0  0
    7.1466    2.6758   -5.2307 C   0  0  0  0  0  0  0  0  0  0  0  0
    6.4548    2.3201   -4.0609 C   0  0  0  0  0  0  0  0  0  0  0  0
    7.1089    1.7016   -2.9817 C   0  0  0  0  0  0  0  0  0  0  0  0
    6.4184    1.3457   -1.8108 C   0  0  0  0  0  0  0  0  0  0  0  0
    7.0732    0.7275   -0.7315 C   0  0  0  0  0  0  0  0  0  0  0  0
    6.3857    0.3702    0.4422 C   0  0  0  0  0  0  0  0  0  0  0  0
    7.0224   -0.2548    1.5450 C   0  0  0  0  0  0  0  0  0  0  0  0
    8.4035   -0.5140    1.4279 C   0  0  0  0  0  0  0  0  0  0  0  0
    9.0945   -0.1578    0.2559 C   0  0  0  0  0  0  0  0  0  0  0  0
    8.4475    0.4592   -0.8251 C   0  0  0  0  0  0  0  0  0  0  0  0
    9.1407    0.8137   -1.9953 C   0  0  0  0  0  0  0  0  0  0  0  0
    8.4880    1.4319   -3.0749 C   0  0  0  0  0  0  0  0  0  0  0  0
    9.1810    1.7867   -4.2446 C   0  0  0  0  0  0  0  0  0  0  0  0
    8.5284    2.4054   -5.3237 C   0  0  0  0  0  0  0  0  0  0  0  0
    9.2208    2.7608   -6.4931 C   0  0  0  0  0  0  0  0  0  0  0  0
    9.0889   -1.1283    2.4834 C   0  0  0  0  0  0  0  0  0  0  0  0
    8.4433   -1.5014    3.6682 C   0  0  0  0  0  0  0  0  0  0  0  0
    9.1726   -2.1161    4.7015 C   0  0  0  0  0  0  0  0  0  0  0  0
    8.5548   -2.4986    5.8901 C   0  0  0  0  0  0  0  0  0  0  0  0
    7.1976   -2.2712    6.0604 C   0  0  0  0  0  0  0  0  0  0  0  0
    6.4629   -1.6608    5.0412 C   0  0  0  0  0  0  0  0  0  0  0  0
    7.0602   -1.2583    3.8200 C   0  0  0  0  0  0  0  0  0  0  0  0
    6.3451   -0.6293    2.7506 C   0  0  0  0  0  0  0  0  0  0  0  0
    4.8967   -0.3644    2.8915 C   0  0  0  0  0  0  0  0  0  0  0  0
    4.4412    0.8381    3.4462 C   0  0  0  0  0  0  0  0  0  0  0  0
    3.0731    1.0882    3.5743 C   0  0  0  0  0  0  0  0  0  0  0  0
    2.1281    0.1425    3.1479 C   0  0  0  0  0  0  0  0  0  0  0  0
    0.7492    0.3811    3.2666 C   0  0  0  0  0  0  0  0  0  0  0  0
   -0.1979   -0.5633    2.8359 C   0  0  0  0  0  0  0  0  0  0  0  0
   -1.5772   -0.3223    2.9517 C   0  0  0  0  0  0  0  0  0  0  0  0
   -2.5247   -1.2656    2.5213 C   0  0  0  0  0  0  0  0  0  0  0  0
   -3.9041   -1.0232    2.6374 C   0  0  0  0  0  0  0  0  0  0  0  0
   -4.8507   -1.9669    2.2067 C   0  0  0  0  0  0  0  0  0  0  0  0
   -6.2990   -1.6939    2.3353 C   0  0  0  0  0  0  0  0  0  0  0  0
   -6.9925   -2.0834    3.5263 C   0  0  0  0  0  0  0  0  0  0  0  0
   -6.3739   -2.7319    4.6252 C   0  0  0  0  0  0  0  0  0  0  0  0
   -7.0878   -3.0950    5.7696 C   0  0  0  0  0  0  0  0  0  0  0  0
   -8.4447   -2.8207    5.8513 C   0  0  0  0  0  0  0  0  0  0  0  0
   -9.0831   -2.1842    4.7892 C   0  0  0  0  0  0  0  0  0  0  0  0
   -8.3751   -1.8138    3.6321 C   0  0  0  0  0  0  0  0  0  0  0  0
   -9.0414   -1.1745    2.5797 C   0  0  0  0  0  0  0  0  0  0  0  0
   -8.3776   -0.7864    1.4090 C   0  0  0  0  0  0  0  0  0  0  0  0
   -9.0888   -0.1453    0.3785 C   0  0  0  0  0  0  0  0  0  0  0  0
   -8.4637    0.2610   -0.8100 C   0  0  0  0  0  0  0  0  0  0  0  0
   -9.1765    0.9019   -1.8384 C   0  0  0  0  0  0  0  0  0  0  0  0
   -8.5448    1.3067   -3.0266 C   0  0  0  0  0  0  0  0  0  0  0  0
   -9.2566    1.9476   -4.0551 C   0  0  0  0  0  0  0  0  0  0  0  0
   -8.6237    2.3516   -5.2423 C   0  0  0  0  0  0  0  0  0  0  0  0
   -9.3344    2.9921   -6.2707 C   0  0  0  0  0  0  0  0  0  0  0  0
   -8.6911    3.3875   -7.4445 C   0  0  0  0  0  0  0  0  0  0  0  0
   -7.3300    3.1479   -7.6054 C   0  0  0  0  0  0  0  0  0  0  0  0
   -6.6100    2.5124   -6.5926 C   0  0  0  0  0  0  0  0  0  0  0  0
   -7.2432    2.1085   -5.4054 C   0  0  0  0  0  0  0  0  0  0  0  0
   -6.5329    1.4679   -4.3767 C   0  0  0  0  0  0  0  0  0  0  0  0
   -7.1671    1.0642   -3.1894 C   0  0  0  0  0  0  0  0  0  0  0  0
   -6.4573    0.4235   -2.1599 C   0  0  0  0  0  0  0  0  0  0  0  0
   -7.0909    0.0193   -0.9721 C   0  0  0  0  0  0  0  0  0  0  0  0
   -6.3832   -0.6222    0.0603 C   0  0  0  0  0  0  0  0  0  0  0  0
   -6.9975   -1.0398    1.2688 C   0  0  0  0  0  0  0  0  0  0  0  0
   -4.3962   -3.1701    1.6526 C   0  0  0  0  0  0  0  0  0  0  0  0
   -3.0280   -3.4247    1.5314 C   0  0  0  0  0  0  0  0  0  0  0  0
   -2.0817   -2.4815    1.9611 C   0  0  0  0  0  0  0  0  0  0  0  0
   -0.7026   -2.7221    1.8454 C   0  0  0  0  0  0  0  0  0  0  0  0
    0.2449   -1.7775    2.2755 C   0  0  0  0  0  0  0  0  0  0  0  0
    1.6244   -2.0176    2.1585 C   0  0  0  0  0  0  0  0  0  0  0  0
    2.5718   -1.0729    2.5868 C   0  0  0  0  0  0  0  0  0  0  0  0
    3.9514   -1.3123    2.4670 C   0  0  0  0  0  0  0  0  0  0  0  0
    9.1067    3.6449   -8.4554 H   0  0  0  0  0  0  0  0  0  0  0  0
    6.6774    4.1204   -8.2919 H   0  0  0  0  0  0  0  0  0  0  0  0
    5.4292    3.5113   -6.2571 H   0  0  0  0  0  0  0  0  0  0  0  0
    5.3888    2.5286   -3.9892 H   0  0  0  0  0  0  0  0  0  0  0  0
    5.3519    1.5531   -1.7370 H   0  0  0  0  0  0  0  0  0  0  0  0
    5.3197    0.5881    0.4939 H   0  0  0  0  0  0  0  0  0  0  0  0
   10.1610   -0.3654    0.1825 H   0  0  0  0  0  0  0  0  0  0  0  0
   10.2066    0.6049   -2.0667 H   0  0  0  0  0  0  0  0  0  0  0  0
   10.2468    1.5780   -4.3167 H   0  0  0  0  0  0  0  0  0  0  0  0
   10.2861    2.5605   -6.5835 H   0  0  0  0  0  0  0  0  0  0  0  0
   10.1560   -1.3223    2.3802 H   0  0  0  0  0  0  0  0  0  0  0  0
   10.2384   -2.3034    4.5864 H   0  0  0  0  0  0  0  0  0  0  0  0
    9.1334   -2.9725    6.6782 H   0  0  0  0  0  0  0  0  0  0  0  0
    6.7034   -2.5660    6.9823 H   0  0  0  0  0  0  0  0  0  0  0  0
    5.4000   -1.5011    5.2145 H   0  0  0  0  0  0  0  0  0  0  0  0
    5.1553    1.5882    3.7808 H   0  0  0  0  0  0  0  0  0  0  0  0
    2.7516    2.0319    4.0096 H   0  0  0  0  0  0  0  0  0  0  0  0
    0.4069    1.3185    3.7014 H   0  0  0  0  0  0  0  0  0  0  0  0
   -1.9202    0.6159    3.3850 H   0  0  0  0  0  0  0  0  0  0  0  0
   -4.2547   -0.0867    3.0693 H   0  0  0  0  0  0  0  0  0  0  0  0
   -5.3107   -2.9648    4.6015 H   0  0  0  0  0  0  0  0  0  0  0  0
   -6.5787   -3.5907    6.5919 H   0  0  0  0  0  0  0  0  0  0  0  0
   -9.0070   -3.0999    6.7381 H   0  0  0  0  0  0  0  0  0  0  0  0
  -10.1481   -1.9770    4.8725 H   0  0  0  0  0  0  0  0  0  0  0  0
  -10.1078   -0.9729    2.6755 H   0  0  0  0  0  0  0  0  0  0  0  0
  -10.1543    0.0425    0.5038 H   0  0  0  0  0  0  0  0  0  0  0  0
  -10.2413    1.0890   -1.7115 H   0  0  0  0  0  0  0  0  0  0  0  0
  -10.3214    2.1354   -3.9299 H   0  0  0  0  0  0  0  0  0  0  0  0
  -10.3989    3.1884   -6.1640 H   0  0  0  0  0  0  0  0  0  0  0  0
   -9.2537    3.8821   -8.2318 H   0  0  0  0  0  0  0  0  0  0  0  0
   -6.8271    3.4550   -8.5187 H   0  0  0  0  0  0  0  0  0  0  0  0
   -5.5468    2.3340   -6.7370 H   0  0  0  0  0  0  0  0  0  0  0  0
   -5.4681    1.2805   -4.5026 H   0  0  0  0  0  0  0  0  0  0  0  0
   -5.3921    0.2357   -2.2844 H   0  0  0  0  0  0  0  0  0  0  0  0
   -5.3187   -0.7996   -0.0868 H   0  0  0  0  0  0  0  0  0  0  0  0
   -5.1110   -3.9170    1.3121 H   0  0  0  0  0  0  0  0  0  0  0  0
   -2.7073   -4.3690    1.0969 H   0  0  0  0  0  0  0  0  0  0  0  0
   -0.3607   -3.6612    1.4136 H   0  0  0  0  0  0  0  0  0  0  0  0
    1.9676   -2.9554    1.7249 H   0  0  0  0  0  0  0  0  0  0  0  0
    4.3036   -2.2484    2.0354 H   0  0  0  0  0  0  0  0  0  0  0  0
  1  2  4  0
  2  3  4  0
  3  4  4  0
  4  5  4  0
  5  6  4  0
  6  7  4  0
  7  8  4  0
  8  9  4  0
  9 10  4  0
 10 11  4  0
 11 12  4  0
 12 13  4  0
 13 14  4  0
 14 15  4  0
 15 16  4  0
 16 17  4  0
 17 18  4  0
 11 19  4  0
 19 20  4  0
 20 21  4  0
 21 22  4  0
 22 23  4  0
 23 24  4  0
 24 25  4  0
 25 26  4  0
 26 27  1  0
 27 28  4  0
 28 29  4  0
 29 30  4  0
 30 31  4  0
 31 32  4  0
 32 33  4  0
 33 34  4  0
 34 35  4  0
 35 36  4  0
 36 37  1  0
 37 38  4  0
 38 39  4  0
 39 40  4  0
 40 41  4  0
 41 42  4  0
 42 43  4  0
 43 44  4  0
 44 45  4  0
 45 46  4  0
 46 47  4  0
 47 48  4  0
 48 49  4  0
 49 50  4  0
 50 51  4  0
 51 52  4  0
 52 53  4  0
 53 54  4  0
 54 55  4  0
 55 56  4  0
 56 57  4  0
 57 58  4  0
 58 59  4  0
 59 60  4  0
 60 61  4  0
 61 62  4  0
 36 63  4  0
 63 64  4  0
 64 65  4  0
 65 66  4  0
 66 67  4  0
 67 68  4  0
 68 69  4  0
 69 70  4  0
 18  1  4  0
 25 20  4  0
 70 27  4  0
 17  4  4  0
 69 30  4  0
 15  6  4  0
 67 32  4  0
 13  8  4  0
 65 34  4  0
 26 10  4  0
 62 37  4  0
 43 38  4  0
 62 45  4  0
 60 47  4  0
 58 49  4  0
 56 51  4  0
  1 71  1  0
  2 72  1  0
  3 73  1  0
  5 74  1  0
  7 75  1  0
  9 76  1  0
 12 77  1  0
 14 78  1  0
 16 79  1  0
 18 80  1  0
 19 81  1  0
 21 82  1  0
 22 83  1  0
 23 84  1  0
 24 85  1  0
 28 86  1  0
 29 87  1  0
 31 88  1  0
 33 89  1  0
 35 90  1  0
 39 91  1  0
 40 92  1  0
 41 93  1  0
 42 94  1  0
 44 95  1  0
 46 96  1  0
 48 97  1  0
 50 98  1  0
 52 99  1  0
 53100  1  0
 54101  1  0
 55102  1  0
 57103  1  0
 59104  1  0
 61105  1  0
 63106  1  0
 64107  1  0
 66108  1  0
 68109  1  0
 70110  1  0
M  END
