
     RDKit          3D

110125  0  0  0  0  0  0  0  0999 V2000
   -5.4389    7.1162    2.0874 C   0  0  0  0  0  0  0  0  0  0  0  0
   -4.2641    6.5774    1.5851 C   0  0  0  0  0  0  0  0  0  0  0  0
   -4.2637    5.2839    1.0582 C   0  0  0  0  0  0  0  0  0  0  0  0
   -5.4362    4.4875    1.0162 C   0  0  0  0  0  0  0  0  0  0  0  0
   -6.6205    5.0568    1.5339 C   0  0  0  0  0  0  0  0  0  0  0  0
   -6.6087    6.3601    2.0615 C   0  0  0  0  0  0  0  0  0  0  0  0
   -7.8096    4.3185    1.5214 C   0  0  0  0  0  0  0  0  0  0  0  0
   -7.8682    3.0168    1.0082 C   0  0  0  0  0  0  0  0  0  0  0  0
   -9.0862    2.3140    1.0193 C   0  0  0  0  0  0  0  0  0  0  0  0
   -9.1904    1.0083    0.5180 C   0  0  0  0  0  0  0  0  0  0  0  0
  -10.4092    0.3086    0.5320 C   0  0  0  0  0  0  0  0  0  0  0  0
  -10.5092   -0.9997    0.0302 C   0  0  0  0  0  0  0  0  0  0  0  0
  -11.7277   -1.6998    0.0448 C   0  0  0  0  0  0  0  0  0  0  0  0
  -11.8266   -3.0083   -0.4562 C   0  0  0  0  0  0  0  0  0  0  0  0
  -13.0440   -3.7089   -0.4413 C   0  0  0  0  0  0  0  0  0  0  0  0
  -13.1260   -5.0088   -0.9428 C   0  0  0  0  0  0  0  0  0  0  0  0
  -11.9932   -5.6248   -1.4654 C   0  0  0  0  0  0  0  0  0  0  0  0
  -10.7764   -4.9415   -1.4870 C   0  0  0  0  0  0  0  0  0  0  0  0
  -10.6775   -3.6327   -0.9860 C   0  0  0  0  0  0  0  0  0  0  0  0
   -9.4602   -2.9315   -1.0004 C   0  0  0  0  0  0  0  0  0  0  0  0
   -9.3621   -1.6225   -0.4985 C   0  0  0  0  0  0  0  0  0  0  0  0
   -8.1448   -0.9202   -0.5118 C   0  0  0  0  0  0  0  0  0  0  0  0
   -8.0465    0.3889   -0.0090 C   0  0  0  0  0  0  0  0  0  0  0  0
   -6.8302    1.0955   -0.0196 C   0  0  0  0  0  0  0  0  0  0  0  0
   -6.7053    2.4162    0.4832 C   0  0  0  0  0  0  0  0  0  0  0  0
   -5.4797    3.1577    0.4858 C   0  0  0  0  0  0  0  0  0  0  0  0
   -4.2480    2.5472   -0.0602 C   0  0  0  0  0  0  0  0  0  0  0  0
   -3.9088    2.7056   -1.4097 C   0  0  0  0  0  0  0  0  0  0  0  0
   -2.7389    2.1382   -1.9198 C   0  0  0  0  0  0  0  0  0  0  0  0
   -1.8810    1.3984   -1.0919 C   0  0  0  0  0  0  0  0  0  0  0  0
   -0.6990    0.8257   -1.5888 C   0  0  0  0  0  0  0  0  0  0  0  0
    0.1607    0.0856   -0.7598 C   0  0  0  0  0  0  0  0  0  0  0  0
    1.3440   -0.4860   -1.2565 C   0  0  0  0  0  0  0  0  0  0  0  0
    2.2034   -1.2265   -0.4284 C   0  0  0  0  0  0  0  0  0  0  0  0
    3.3865   -1.7988   -0.9257 C   0  0  0  0  0  0  0  0  0  0  0  0
    4.2434   -2.5406   -0.0965 C   0  0  0  0  0  0  0  0  0  0  0  0
    5.4839   -3.1390   -0.6362 C   0  0  0  0  0  0  0  0  0  0  0  0
    6.7111   -2.4013   -0.5855 C   0  0  0  0  0  0  0  0  0  0  0  0
    6.8268   -1.0959   -0.0428 C   0  0  0  0  0  0  0  0  0  0  0  0
    8.0449   -0.3939   -0.0009 C   0  0  0  0  0  0  0  0  0  0  0  0
    8.1327    0.8986    0.5445 C   0  0  0  0  0  0  0  0  0  0  0  0
    9.3515    1.5964    0.5868 C   0  0  0  0  0  0  0  0  0  0  0  0
    9.4382    2.8882    1.1331 C   0  0  0  0  0  0  0  0  0  0  0  0
   10.6571    3.5852    1.1758 C   0  0  0  0  0  0  0  0  0  0  0  0
   10.7447    4.8765    1.7219 C   0  0  0  0  0  0  0  0  0  0  0  0
   11.9634    5.5559    1.7572 C   0  0  0  0  0  0  0  0  0  0  0  0
   13.1093    4.9535    1.2475 C   0  0  0  0  0  0  0  0  0  0  0  0
   13.0383    3.6710    0.7016 C   0  0  0  0  0  0  0  0  0  0  0  0
   11.8192    2.9744    0.6588 C   0  0  0  0  0  0  0  0  0  0  0  0
   11.7313    1.6832    0.1126 C   0  0  0  0  0  0  0  0  0  0  0  0
   10.5112    0.9868    0.0704 C   0  0  0  0  0  0  0  0  0  0  0  0
   10.4214   -0.3049   -0.4755 C   0  0  0  0  0  0  0  0  0  0  0  0
    9.2005   -1.0009   -0.5163 C   0  0  0  0  0  0  0  0  0  0  0  0
    9.1048   -2.2907   -1.0600 C   0  0  0  0  0  0  0  0  0  0  0  0
    7.8848   -2.9900   -1.0998 C   0  0  0  0  0  0  0  0  0  0  0  0
    7.8342   -4.2763   -1.6517 C   0  0  0  0  0  0  0  0  0  0  0  0
    6.6436   -5.0107   -1.7116 C   0  0  0  0  0  0  0  0  0  0  0  0
    6.6405   -6.2990   -2.2751 C   0  0  0  0  0  0  0  0  0  0  0  0
    5.4704   -7.0520   -2.3457 C   0  0  0  0  0  0  0  0  0  0  0  0
    4.2864   -6.5253   -1.8524 C   0  0  0  0  0  0  0  0  0  0  0  0
    4.2769   -5.2465   -1.2907 C   0  0  0  0  0  0  0  0  0  0  0  0
    5.4493   -4.4533   -1.2038 C   0  0  0  0  0  0  0  0  0  0  0  0
    3.8999   -2.7040    1.2514 C   0  0  0  0  0  0  0  0  0  0  0  0
    2.7279   -2.1399    1.7596 C   0  0  0  0  0  0  0  0  0  0  0  0
    1.8709   -1.3996    0.9312 C   0  0  0  0  0  0  0  0  0  0  0  0
    0.6886   -0.8272    1.4275 C   0  0  0  0  0  0  0  0  0  0  0  0
   -0.1705   -0.0866    0.5986 C   0  0  0  0  0  0  0  0  0  0  0  0
   -1.3525    0.4866    1.0962 C   0  0  0  0  0  0  0  0  0  0  0  0
   -2.2115    1.2275    0.2683 C   0  0  0  0  0  0  0  0  0  0  0  0
   -3.3914    1.8037    0.7677 C   0  0  0  0  0  0  0  0  0  0  0  0
   -5.4477    8.1217    2.4990 H   0  0  0  0  0  0  0  0  0  0  0  0
   -3.3448    7.1567    1.5999 H   0  0  0  0  0  0  0  0  0  0  0  0
   -3.3206    4.8982    0.6750 H   0  0  0  0  0  0  0  0  0  0  0  0
   -7.5203    6.8003    2.4606 H   0  0  0  0  0  0  0  0  0  0  0  0
   -8.7158    4.7699    1.9239 H   0  0  0  0  0  0  0  0  0  0  0  0
   -9.9743    2.7935    1.4285 H   0  0  0  0  0  0  0  0  0  0  0  0
  -11.2951    0.7910    0.9412 H   0  0  0  0  0  0  0  0  0  0  0  0
  -12.6144   -1.2187    0.4535 H   0  0  0  0  0  0  0  0  0  0  0  0
  -13.9408   -3.2447   -0.0371 H   0  0  0  0  0  0  0  0  0  0  0  0
  -14.0747   -5.5387   -0.9248 H   0  0  0  0  0  0  0  0  0  0  0  0
  -12.0551   -6.6369   -1.8566 H   0  0  0  0  0  0  0  0  0  0  0  0
   -9.9015   -5.4389   -1.8995 H   0  0  0  0  0  0  0  0  0  0  0  0
   -8.5736   -3.4131   -1.4089 H   0  0  0  0  0  0  0  0  0  0  0  0
   -7.2571   -1.4006   -0.9200 H   0  0  0  0  0  0  0  0  0  0  0  0
   -5.9543    0.5967   -0.4329 H   0  0  0  0  0  0  0  0  0  0  0  0
   -4.5569    3.2783   -2.0705 H   0  0  0  0  0  0  0  0  0  0  0  0
   -2.5019    2.2818   -2.9718 H   0  0  0  0  0  0  0  0  0  0  0  0
   -0.4433    0.9595   -2.6384 H   0  0  0  0  0  0  0  0  0  0  0  0
    1.6015   -0.3520   -2.3059 H   0  0  0  0  0  0  0  0  0  0  0  0
    3.6514   -1.6706   -1.9745 H   0  0  0  0  0  0  0  0  0  0  0  0
    5.9421   -0.6056    0.3619 H   0  0  0  0  0  0  0  0  0  0  0  0
    7.2354    1.3690    0.9436 H   0  0  0  0  0  0  0  0  0  0  0  0
    8.5418    3.3596    1.5320 H   0  0  0  0  0  0  0  0  0  0  0  0
    9.8600    5.3641    2.1253 H   0  0  0  0  0  0  0  0  0  0  0  0
   12.0163    6.5546    2.1827 H   0  0  0  0  0  0  0  0  0  0  0  0
   14.0594    5.4807    1.2739 H   0  0  0  0  0  0  0  0  0  0  0  0
   13.9452    3.2171    0.3081 H   0  0  0  0  0  0  0  0  0  0  0  0
   12.6280    1.2126   -0.2864 H   0  0  0  0  0  0  0  0  0  0  0  0
   11.3170   -0.7770   -0.8753 H   0  0  0  0  0  0  0  0  0  0  0  0
   10.0016   -2.7610   -1.4608 H   0  0  0  0  0  0  0  0  0  0  0  0
    8.7480   -4.7196   -2.0460 H   0  0  0  0  0  0  0  0  0  0  0  0
    7.5600   -6.7296   -2.6667 H   0  0  0  0  0  0  0  0  0  0  0  0
    5.4863   -8.0460   -2.7840 H   0  0  0  0  0  0  0  0  0  0  0  0
    3.3673   -7.1032   -1.9011 H   0  0  0  0  0  0  0  0  0  0  0  0
    3.3268   -4.8699   -0.9152 H   0  0  0  0  0  0  0  0  0  0  0  0
    4.5485   -3.2751    1.9130 H   0  0  0  0  0  0  0  0  0  0  0  0
    2.4894   -2.2855    2.8109 H   0  0  0  0  0  0  0  0  0  0  0  0
    0.4332   -0.9597    2.4773 H   0  0  0  0  0  0  0  0  0  0  0  0
   -1.6084    0.3552    2.1463 H   0  0  0  0  0  0  0  0  0  0  0  0
   -3.6535    1.6785    1.8175 H   0  0  0  0  0  0  0  0  0  0  0  0
  1  2  4  0
  2  3  4  0
  3  4  4  0
  4  5  4  0
  5  6  4  0
  5  7  4  0
  7  8  4  0
  8  9  4  0
  9 10  4  0
 10 11  4  0
 11 12  4  0
 12 13  4  0
 13 14  4  0
 14 15  4  0
 15 16  4  0
 16 17  4  0
 17 18  4  0
 18 19  4  0
 19 20  4  0
 20 21  4  0
 21 22  4  0
 22 23  4  0
 23 24  4  0
 24 25  4  0
 25 26  4  0
 26 27  1  0
 27 28  4  0
 28 29  4  0
 29 30  4  0
 30 31  4  0
 31 32  4  0
 32 33  4  0
 33 34  4  0
 34 35  4  0
 35 36  4  0
 36 37  1  0
 37 38  4  0
 38 39  4  0
 39 40  4  0
 40 41  4  0
 41 42  4  0
 42 43  4  0
 43 44  4  0
 44 45  4  0
 45 46  4  0
 46 47  4  0
 47 48  4  0
 48 49  4  0
 49 50  4  0
 50 51  4  0
 51 52  4  0
 52 53  4  0
 53 54  4  0
 54 55  4  0
 55 56  4  0
 56 57  4  0
 57 58  4  0
 58 59  4  0
 59 60  4  0
 60 61  4  0
 61 62  4  0
 36 63  4  0
 63 64  4  0
 64 65  4  0
 65 66  4  0
 66 67  4  0
 67 68  4  0
 68 69  4  0
 69 70  4  0
  6  1  4  0
 25  8  4  0
 70 27  4  0
 26  4  4  0
 69 30  4  0
 23 10  4  0
 67 32  4  0
 21 12  4  0
 65 34  4  0
 19 14  4  0
 62 37  4  0
 55 38  4  0
 62 57  4  0
 53 40  4  0
 51 42  4  0
 49 44  4  0
  1 71  1  0
  2 72  1  0
  3 73  1  0
  6 74  1  0
  7 75  1  0
  9 76  1  0
 11 77  1  0
 13 78  1  0
 15 79  1  0
 16 80  1  0
 17 81  1  0
 18 82  1  0
 20 83  1  0
 22 84  1  0
 24 85  1  0
 28 86  1  0
 29 87  1  0
 31 88  1  0
 33 89  1  0
 35 90  1  0
 39 91  1  0
 41 92  1  0
 43 93  1  0
 45 94  1  0
 46 95  1  0
 47 96  1  0
 48 97  1  0
 50 98  1  0
 52 99  1  0
 54100  1  0
 56101  1  0
 58102  1  0
 59103  1  0
 60104  1  0
 61105  1  0
 63106  1  0
 64107  1  0
 66108  1  0
 68109  1  0
 70110  1  0
M  END
