
     RDKit          3D

 86 97  0  0  0  0  0  0  0  0999 V2000
  -11.9076    2.5504   -1.7956 C   0  0  0  0  0  0  0  0  0  0  0  0
  -11.8317    1.4083   -0.9972 C   0  0  0  0  0  0  0  0  0  0  0  0
  -10.6016    0.9800   -0.4706 C   0  0  0  0  0  0  0  0  0  0  0  0
  -10.5080   -0.1663    0.3355 C   0  0  0  0  0  0  0  0  0  0  0  0
   -9.2769   -0.5929    0.8628 C   0  0  0  0  0  0  0  0  0  0  0  0
   -9.1812   -1.7372    1.6695 C   0  0  0  0  0  0  0  0  0  0  0  0
   -7.9529   -2.1664    2.2003 C   0  0  0  0  0  0  0  0  0  0  0  0
   -7.8973   -3.3151    3.0039 C   0  0  0  0  0  0  0  0  0  0  0  0
   -6.6911   -3.7561    3.5395 C   0  0  0  0  0  0  0  0  0  0  0  0
   -5.5214   -3.0511    3.2776 C   0  0  0  0  0  0  0  0  0  0  0  0
   -5.5368   -1.8943    2.4769 C   0  0  0  0  0  0  0  0  0  0  0  0
   -4.2626   -1.1957    2.2446 C   0  0  0  0  0  0  0  0  0  0  0  0
   -3.8434   -0.1716    3.1020 C   0  0  0  0  0  0  0  0  0  0  0  0
   -2.6329    0.4903    2.8822 C   0  0  0  0  0  0  0  0  0  0  0  0
   -1.8121    0.1431    1.7984 C   0  0  0  0  0  0  0  0  0  0  0  0
   -0.5937    0.8010    1.5626 C   0  0  0  0  0  0  0  0  0  0  0  0
    0.2279    0.4551    0.4765 C   0  0  0  0  0  0  0  0  0  0  0  0
    1.4463    1.1143    0.2410 C   0  0  0  0  0  0  0  0  0  0  0  0
    2.2678    0.7700   -0.8451 C   0  0  0  0  0  0  0  0  0  0  0  0
    3.4868    1.4293   -1.0794 C   0  0  0  0  0  0  0  0  0  0  0  0
    4.3102    1.0809   -2.1616 C   0  0  0  0  0  0  0  0  0  0  0  0
    5.5865    1.7773   -2.3875 C   0  0  0  0  0  0  0  0  0  0  0  0
    6.7975    1.3770   -1.7506 C   0  0  0  0  0  0  0  0  0  0  0  0
    6.8862    0.2819   -0.8579 C   0  0  0  0  0  0  0  0  0  0  0  0
    8.0923   -0.0923   -0.2400 C   0  0  0  0  0  0  0  0  0  0  0  0
    8.1569   -1.1821    0.6451 C   0  0  0  0  0  0  0  0  0  0  0  0
    9.3624   -1.5545    1.2623 C   0  0  0  0  0  0  0  0  0  0  0  0
    9.4276   -2.6432    2.1476 C   0  0  0  0  0  0  0  0  0  0  0  0
   10.6337   -3.0003    2.7526 C   0  0  0  0  0  0  0  0  0  0  0  0
   11.7891   -2.2743    2.4805 C   0  0  0  0  0  0  0  0  0  0  0  0
   11.7401   -1.1898    1.6033 C   0  0  0  0  0  0  0  0  0  0  0  0
   10.5338   -0.8180    0.9867 C   0  0  0  0  0  0  0  0  0  0  0  0
   10.4670    0.2707    0.1016 C   0  0  0  0  0  0  0  0  0  0  0  0
    9.2591    0.6414   -0.5144 C   0  0  0  0  0  0  0  0  0  0  0  0
    9.1891    1.7287   -1.3992 C   0  0  0  0  0  0  0  0  0  0  0  0
    7.9832    2.1030   -2.0162 C   0  0  0  0  0  0  0  0  0  0  0  0
    7.9520    3.1956   -2.8959 C   0  0  0  0  0  0  0  0  0  0  0  0
    6.7677    3.5815   -3.5165 C   0  0  0  0  0  0  0  0  0  0  0  0
    5.5953    2.8778   -3.2637 C   0  0  0  0  0  0  0  0  0  0  0  0
    3.8917    0.0589   -3.0215 C   0  0  0  0  0  0  0  0  0  0  0  0
    2.6819   -0.6046   -2.8023 C   0  0  0  0  0  0  0  0  0  0  0  0
    1.8609   -0.2601   -1.7177 C   0  0  0  0  0  0  0  0  0  0  0  0
    0.6432   -0.9192   -1.4816 C   0  0  0  0  0  0  0  0  0  0  0  0
   -0.1787   -0.5743   -0.3950 C   0  0  0  0  0  0  0  0  0  0  0  0
   -1.3974   -1.2335   -0.1585 C   0  0  0  0  0  0  0  0  0  0  0  0
   -2.2198   -0.8878    0.9269 C   0  0  0  0  0  0  0  0  0  0  0  0
   -3.4400   -1.5459    1.1624 C   0  0  0  0  0  0  0  0  0  0  0  0
   -6.7700   -1.4391    1.9251 C   0  0  0  0  0  0  0  0  0  0  0  0
   -6.8839   -0.2885    1.1083 C   0  0  0  0  0  0  0  0  0  0  0  0
   -8.1131    0.1417    0.5778 C   0  0  0  0  0  0  0  0  0  0  0  0
   -8.2045    1.2887   -0.2295 C   0  0  0  0  0  0  0  0  0  0  0  0
   -9.4337    1.7179   -0.7570 C   0  0  0  0  0  0  0  0  0  0  0  0
   -9.5264    2.8650   -1.5626 C   0  0  0  0  0  0  0  0  0  0  0  0
  -10.7559    3.2783   -2.0781 C   0  0  0  0  0  0  0  0  0  0  0  0
  -12.8661    2.8703   -2.1958 H   0  0  0  0  0  0  0  0  0  0  0  0
  -12.7429    0.8527   -0.7875 H   0  0  0  0  0  0  0  0  0  0  0  0
  -11.4089   -0.7357    0.5567 H   0  0  0  0  0  0  0  0  0  0  0  0
  -10.0837   -2.3056    1.8893 H   0  0  0  0  0  0  0  0  0  0  0  0
   -8.8017   -3.8801    3.2206 H   0  0  0  0  0  0  0  0  0  0  0  0
   -6.6635   -4.6473    4.1608 H   0  0  0  0  0  0  0  0  0  0  0  0
   -4.5835   -3.4043    3.7029 H   0  0  0  0  0  0  0  0  0  0  0  0
   -4.4644    0.1187    3.9474 H   0  0  0  0  0  0  0  0  0  0  0  0
   -2.3375    1.2825    3.5667 H   0  0  0  0  0  0  0  0  0  0  0  0
   -0.2801    1.5971    2.2357 H   0  0  0  0  0  0  0  0  0  0  0  0
    1.7617    1.9093    0.9146 H   0  0  0  0  0  0  0  0  0  0  0  0
    3.8092    2.2249   -0.4088 H   0  0  0  0  0  0  0  0  0  0  0  0
    5.9919   -0.2989   -0.6359 H   0  0  0  0  0  0  0  0  0  0  0  0
    7.2526   -1.7501    0.8572 H   0  0  0  0  0  0  0  0  0  0  0  0
    8.5351   -3.2229    2.3726 H   0  0  0  0  0  0  0  0  0  0  0  0
   10.6695   -3.8450    3.4355 H   0  0  0  0  0  0  0  0  0  0  0  0
   12.7294   -2.5509    2.9504 H   0  0  0  0  0  0  0  0  0  0  0  0
   12.6538   -0.6346    1.4034 H   0  0  0  0  0  0  0  0  0  0  0  0
   11.3705    0.8391   -0.1112 H   0  0  0  0  0  0  0  0  0  0  0  0
   10.0939    2.2959   -1.6118 H   0  0  0  0  0  0  0  0  0  0  0  0
    8.8588    3.7594   -3.1062 H   0  0  0  0  0  0  0  0  0  0  0  0
    6.7586    4.4301   -4.1953 H   0  0  0  0  0  0  0  0  0  0  0  0
    4.6738    3.1899   -3.7524 H   0  0  0  0  0  0  0  0  0  0  0  0
    4.5132   -0.2302   -3.8669 H   0  0  0  0  0  0  0  0  0  0  0  0
    2.3875   -1.3961   -3.4880 H   0  0  0  0  0  0  0  0  0  0  0  0
    0.3304   -1.7151   -2.1553 H   0  0  0  0  0  0  0  0  0  0  0  0
   -1.7122   -2.0292   -0.8316 H   0  0  0  0  0  0  0  0  0  0  0  0
   -3.7627   -2.3423    0.4932 H   0  0  0  0  0  0  0  0  0  0  0  0
   -5.9915    0.2917    0.8772 H   0  0  0  0  0  0  0  0  0  0  0  0
   -7.3028    1.8574   -0.4503 H   0  0  0  0  0  0  0  0  0  0  0  0
   -8.6372    3.4470   -1.7944 H   0  0  0  0  0  0  0  0  0  0  0  0
  -10.8127    4.1683   -2.6993 H   0  0  0  0  0  0  0  0  0  0  0  0
  1  2  4  0
  2  3  4  0
  3  4  4  0
  4  5  4  0
  5  6  4  0
  6  7  4  0
  7  8  4  0
  8  9  4  0
  9 10  4  0
 10 11  4  0
 11 12  1  0
 12 13  4  0
 13 14  4  0
 14 15  4  0
 15 16  4  0
 16 17  4  0
 17 18  4  0
 18 19  4  0
 19 20  4  0
 20 21  4  0
 21 22  1  0
 22 23  4  0
 23 24  4  0
 24 25  4  0
 25 26  4  0
 26 27  4  0
 27 28  4  0
 28 29  4  0
 29 30  4  0
 30 31  4  0
 31 32  4  0
 32 33  4  0
 33 34  4  0
 34 35  4  0
 35 36  4  0
 36 37  4  0
 37 38  4  0
 38 39  4  0
 21 40  4  0
 40 41  4  0
 41 42  4  0
 42 43  4  0
 43 44  4  0
 44 45  4  0
 45 46  4  0
 46 47  4  0
 11 48  4  0
 48 49  4  0
 49 50  4  0
 50 51  4  0
 51 52  4  0
 52 53  4  0
 53 54  4  0
 54  1  4  0
 52  3  4  0
 50  5  4  0
 48  7  4  0
 47 12  4  0
 46 15  4  0
 44 17  4  0
 42 19  4  0
 39 22  4  0
 36 23  4  0
 34 25  4  0
 32 27  4  0
  1 55  1  0
  2 56  1  0
  4 57  1  0
  6 58  1  0
  8 59  1  0
  9 60  1  0
 10 61  1  0
 13 62  1  0
 14 63  1  0
 16 64  1  0
 18 65  1  0
 20 66  1  0
 24 67  1  0
 26 68  1  0
 28 69  1  0
 29 70  1  0
 30 71  1  0
 31 72  1  0
 33 73  1  0
 35 74  1  0
 37 75  1  0
 38 76  1  0
 39 77  1  0
 40 78  1  0
 41 79  1  0
 43 80  1  0
 45 81  1  0
 47 82  1  0
 49 83  1  0
 51 84  1  0
 53 85  1  0
 54 86  1  0
M  END
