
     RDKit          3D

 86 97  0  0  0  0  0  0  0  0999 V2000
   -8.4294   -1.7501    5.0676 C   0  0  0  0  0  0  0  0  0  0  0  0
   -7.0727   -1.4625    5.1773 C   0  0  0  0  0  0  0  0  0  0  0  0
   -6.3843   -0.9291    4.0866 C   0  0  0  0  0  0  0  0  0  0  0  0
   -7.0447   -0.6770    2.8722 C   0  0  0  0  0  0  0  0  0  0  0  0
   -6.3680   -0.1410    1.7624 C   0  0  0  0  0  0  0  0  0  0  0  0
   -7.0102    0.1208    0.5249 C   0  0  0  0  0  0  0  0  0  0  0  0
   -8.3859   -0.1780    0.4378 C   0  0  0  0  0  0  0  0  0  0  0  0
   -9.0677   -0.7134    1.5458 C   0  0  0  0  0  0  0  0  0  0  0  0
   -8.4161   -0.9677    2.7616 C   0  0  0  0  0  0  0  0  0  0  0  0
   -9.0979   -1.5042    3.8673 C   0  0  0  0  0  0  0  0  0  0  0  0
   -9.0752    0.0598   -0.7580 C   0  0  0  0  0  0  0  0  0  0  0  0
   -8.4393    0.5895   -1.8874 C   0  0  0  0  0  0  0  0  0  0  0  0
   -9.1725    0.8109   -3.0667 C   0  0  0  0  0  0  0  0  0  0  0  0
   -8.5647    1.3355   -4.2055 C   0  0  0  0  0  0  0  0  0  0  0  0
   -7.2133    1.6449   -4.1795 C   0  0  0  0  0  0  0  0  0  0  0  0
   -6.4748    1.4295   -3.0135 C   0  0  0  0  0  0  0  0  0  0  0  0
   -7.0622    0.8990   -1.8368 C   0  0  0  0  0  0  0  0  0  0  0  0
   -6.3429    0.6640   -0.6209 C   0  0  0  0  0  0  0  0  0  0  0  0
   -4.9004    0.9839   -0.5479 C   0  0  0  0  0  0  0  0  0  0  0  0
   -4.4703    2.2614   -0.1680 C   0  0  0  0  0  0  0  0  0  0  0  0
   -3.1080    2.5613   -0.0990 C   0  0  0  0  0  0  0  0  0  0  0  0
   -2.1434    1.5896   -0.4061 C   0  0  0  0  0  0  0  0  0  0  0  0
   -0.7702    1.8756   -0.3403 C   0  0  0  0  0  0  0  0  0  0  0  0
    0.1968    0.9021   -0.6438 C   0  0  0  0  0  0  0  0  0  0  0  0
    1.5709    1.1881   -0.5757 C   0  0  0  0  0  0  0  0  0  0  0  0
    2.5378    0.2145   -0.8761 C   0  0  0  0  0  0  0  0  0  0  0  0
    3.9119    0.5005   -0.8060 C   0  0  0  0  0  0  0  0  0  0  0  0
    4.8771   -0.4753   -1.1035 C   0  0  0  0  0  0  0  0  0  0  0  0
    6.3198   -0.1588   -1.0207 C   0  0  0  0  0  0  0  0  0  0  0  0
    7.0074    0.3303   -2.1779 C   0  0  0  0  0  0  0  0  0  0  0  0
    6.3872    0.5434   -3.4353 C   0  0  0  0  0  0  0  0  0  0  0  0
    7.0954    1.0213   -4.5405 C   0  0  0  0  0  0  0  0  0  0  0  0
    8.4483    1.3018   -4.4226 C   0  0  0  0  0  0  0  0  0  0  0  0
    9.0879    1.1045   -3.2007 C   0  0  0  0  0  0  0  0  0  0  0  0
    8.3855    0.6241   -2.0812 C   0  0  0  0  0  0  0  0  0  0  0  0
    9.0532    0.4354   -0.8651 C   0  0  0  0  0  0  0  0  0  0  0  0
    8.3953   -0.0408    0.2760 C   0  0  0  0  0  0  0  0  0  0  0  0
    9.1089   -0.2139    1.4759 C   0  0  0  0  0  0  0  0  0  0  0  0
    8.4898   -0.6882    2.6416 C   0  0  0  0  0  0  0  0  0  0  0  0
    9.2043   -0.8607    3.8395 C   0  0  0  0  0  0  0  0  0  0  0  0
    8.5684   -1.3340    4.9882 C   0  0  0  0  0  0  0  0  0  0  0  0
    7.2118   -1.6401    4.9535 C   0  0  0  0  0  0  0  0  0  0  0  0
    6.4908   -1.4730    3.7701 C   0  0  0  0  0  0  0  0  0  0  0  0
    7.1185   -0.9977    2.6060 C   0  0  0  0  0  0  0  0  0  0  0  0
    6.4095   -0.8232    1.4043 C   0  0  0  0  0  0  0  0  0  0  0  0
    7.0192   -0.3449    0.2160 C   0  0  0  0  0  0  0  0  0  0  0  0
    4.4470   -1.7544   -1.4776 C   0  0  0  0  0  0  0  0  0  0  0  0
    3.0847   -2.0523   -1.5535 C   0  0  0  0  0  0  0  0  0  0  0  0
    2.1199   -1.0780   -1.2551 C   0  0  0  0  0  0  0  0  0  0  0  0
    0.7465   -1.3627   -1.3252 C   0  0  0  0  0  0  0  0  0  0  0  0
   -0.2204   -0.3887   -1.0236 C   0  0  0  0  0  0  0  0  0  0  0  0
   -1.5945   -0.6745   -1.0920 C   0  0  0  0  0  0  0  0  0  0  0  0
   -2.5613    0.2981   -0.7882 C   0  0  0  0  0  0  0  0  0  0  0  0
   -3.9353    0.0113   -0.8559 C   0  0  0  0  0  0  0  0  0  0  0  0
   -8.9683   -2.1658    5.9148 H   0  0  0  0  0  0  0  0  0  0  0  0
   -6.5484   -1.6527    6.1100 H   0  0  0  0  0  0  0  0  0  0  0  0
   -5.3235   -0.7107    4.1897 H   0  0  0  0  0  0  0  0  0  0  0  0
   -5.3063    0.0768    1.8707 H   0  0  0  0  0  0  0  0  0  0  0  0
  -10.1298   -0.9386    1.4611 H   0  0  0  0  0  0  0  0  0  0  0  0
  -10.1586   -1.7354    3.8000 H   0  0  0  0  0  0  0  0  0  0  0  0
  -10.1377   -0.1747   -0.8120 H   0  0  0  0  0  0  0  0  0  0  0  0
  -10.2337    0.5736   -3.1067 H   0  0  0  0  0  0  0  0  0  0  0  0
   -9.1467    1.5003   -5.1080 H   0  0  0  0  0  0  0  0  0  0  0  0
   -6.7272    2.0536   -5.0614 H   0  0  0  0  0  0  0  0  0  0  0  0
   -5.4166    1.6846   -3.0349 H   0  0  0  0  0  0  0  0  0  0  0  0
   -5.2001    3.0310    0.0763 H   0  0  0  0  0  0  0  0  0  0  0  0
   -2.8067    3.5632    0.1987 H   0  0  0  0  0  0  0  0  0  0  0  0
   -0.4478    2.8732   -0.0471 H   0  0  0  0  0  0  0  0  0  0  0  0
    1.8943    2.1856   -0.2828 H   0  0  0  0  0  0  0  0  0  0  0  0
    4.2448    1.4960   -0.5148 H   0  0  0  0  0  0  0  0  0  0  0  0
    5.3270    0.3361   -3.5695 H   0  0  0  0  0  0  0  0  0  0  0  0
    6.5847    1.1716   -5.4880 H   0  0  0  0  0  0  0  0  0  0  0  0
    9.0069    1.6732   -5.2771 H   0  0  0  0  0  0  0  0  0  0  0  0
   10.1498    1.3308   -3.1280 H   0  0  0  0  0  0  0  0  0  0  0  0
   10.1162    0.6663   -0.8053 H   0  0  0  0  0  0  0  0  0  0  0  0
   10.1708    0.0257    1.5045 H   0  0  0  0  0  0  0  0  0  0  0  0
   10.2655   -0.6264    3.8853 H   0  0  0  0  0  0  0  0  0  0  0  0
    9.1327   -1.4628    5.9080 H   0  0  0  0  0  0  0  0  0  0  0  0
    6.7128   -2.0086    5.8460 H   0  0  0  0  0  0  0  0  0  0  0  0
    5.4305   -1.7169    3.7612 H   0  0  0  0  0  0  0  0  0  0  0  0
    5.3484   -1.0691    1.3994 H   0  0  0  0  0  0  0  0  0  0  0  0
    5.1769   -2.5270   -1.7123 H   0  0  0  0  0  0  0  0  0  0  0  0
    2.7838   -3.0554   -1.8478 H   0  0  0  0  0  0  0  0  0  0  0  0
    0.4242   -2.3600   -1.6193 H   0  0  0  0  0  0  0  0  0  0  0  0
   -1.9182   -1.6718   -1.3855 H   0  0  0  0  0  0  0  0  0  0  0  0
   -4.2679   -0.9831   -1.1509 H   0  0  0  0  0  0  0  0  0  0  0  0
  1  2  4  0
  2  3  4  0
  3  4  4  0
  4  5  4  0
  5  6  4  0
  6  7  4  0
  7  8  4  0
  8  9  4  0
  9 10  4  0
  7 11  4  0
 11 12  4  0
 12 13  4  0
 13 14  4  0
 14 15  4  0
 15 16  4  0
 16 17  4  0
 17 18  4  0
 18 19  1  0
 19 20  4  0
 20 21  4  0
 21 22  4  0
 22 23  4  0
 23 24  4  0
 24 25  4  0
 25 26  4  0
 26 27  4  0
 27 28  4  0
 28 29  1  0
 29 30  4  0
 30 31  4  0
 31 32  4  0
 32 33  4  0
 33 34  4  0
 34 35  4  0
 35 36  4  0
 36 37  4  0
 37 38  4  0
 38 39  4  0
 39 40  4  0
 40 41  4  0
 41 42  4  0
 42 43  4  0
 43 44  4  0
 44 45  4  0
 45 46  4  0
 28 47  4  0
 47 48  4  0
 48 49  4  0
 49 50  4  0
 50 51  4  0
 51 52  4  0
 52 53  4  0
 53 54  4  0
 10  1  4  0
 17 12  4  0
 54 19  4  0
  9  4  4  0
 53 22  4  0
 18  6  4  0
 51 24  4  0
 49 26  4  0
 46 29  4  0
 35 30  4  0
 46 37  4  0
 44 39  4  0
  1 55  1  0
  2 56  1  0
  3 57  1  0
  5 58  1  0
  8 59  1  0
 10 60  1  0
 11 61  1  0
 13 62  1  0
 14 63  1  0
 15 64  1  0
 16 65  1  0
 20 66  1  0
 21 67  1  0
 23 68  1  0
 25 69  1  0
 27 70  1  0
 31 71  1  0
 32 72  1  0
 33 73  1  0
 34 74  1  0
 36 75  1  0
 38 76  1  0
 40 77  1  0
 41 78  1  0
 42 79  1  0
 43 80  1  0
 45 81  1  0
 47 82  1  0
 48 83  1  0
 50 84  1  0
 52 85  1  0
 54 86  1  0
M  END
