
     RDKit          3D

 86 97  0  0  0  0  0  0  0  0999 V2000
  -15.3930    1.6536    1.6421 C   0  0  0  0  0  0  0  0  0  0  0  0
  -14.6865    1.2864    0.4959 C   0  0  0  0  0  0  0  0  0  0  0  0
  -13.3176    0.9775    0.5632 C   0  0  0  0  0  0  0  0  0  0  0  0
  -12.5921    0.6064   -0.5811 C   0  0  0  0  0  0  0  0  0  0  0  0
  -11.2227    0.2979   -0.5130 C   0  0  0  0  0  0  0  0  0  0  0  0
  -10.4974   -0.0733   -1.6576 C   0  0  0  0  0  0  0  0  0  0  0  0
   -9.1285   -0.3814   -1.5896 C   0  0  0  0  0  0  0  0  0  0  0  0
   -8.4044   -0.7531   -2.7313 C   0  0  0  0  0  0  0  0  0  0  0  0
   -7.0422   -1.0565   -2.6468 C   0  0  0  0  0  0  0  0  0  0  0  0
   -6.3643   -0.9961   -1.4219 C   0  0  0  0  0  0  0  0  0  0  0  0
   -4.9297   -1.3119   -1.3332 C   0  0  0  0  0  0  0  0  0  0  0  0
   -4.4318   -2.5421   -1.7832 C   0  0  0  0  0  0  0  0  0  0  0  0
   -3.0690   -2.8421   -1.6961 C   0  0  0  0  0  0  0  0  0  0  0  0
   -2.1641   -1.9167   -1.1569 C   0  0  0  0  0  0  0  0  0  0  0  0
   -0.7920   -2.2025   -1.0625 C   0  0  0  0  0  0  0  0  0  0  0  0
    0.1144   -1.2738   -0.5238 C   0  0  0  0  0  0  0  0  0  0  0  0
    1.4872   -1.5593   -0.4294 C   0  0  0  0  0  0  0  0  0  0  0  0
    2.3941   -0.6309    0.1086 C   0  0  0  0  0  0  0  0  0  0  0  0
    3.7686   -0.9161    0.2033 C   0  0  0  0  0  0  0  0  0  0  0  0
    4.6808    0.0097    0.7379 C   0  0  0  0  0  0  0  0  0  0  0  0
    6.1151   -0.3062    0.8294 C   0  0  0  0  0  0  0  0  0  0  0  0
    6.5605   -1.4486    1.5080 C   0  0  0  0  0  0  0  0  0  0  0  0
    7.9232   -1.7474    1.5968 C   0  0  0  0  0  0  0  0  0  0  0  0
    8.8806   -0.9104    1.0066 C   0  0  0  0  0  0  0  0  0  0  0  0
   10.2534   -1.1967    1.0869 C   0  0  0  0  0  0  0  0  0  0  0  0
   11.2124   -0.3582    0.4942 C   0  0  0  0  0  0  0  0  0  0  0  0
   12.5856   -0.6450    0.5745 C   0  0  0  0  0  0  0  0  0  0  0  0
   13.5448    0.1926   -0.0183 C   0  0  0  0  0  0  0  0  0  0  0  0
   14.9178   -0.0936    0.0614 C   0  0  0  0  0  0  0  0  0  0  0  0
   15.8584    0.7486   -0.5332 C   0  0  0  0  0  0  0  0  0  0  0  0
   15.4391    1.8868   -1.2147 C   0  0  0  0  0  0  0  0  0  0  0  0
   14.0784    2.1847   -1.3025 C   0  0  0  0  0  0  0  0  0  0  0  0
   13.1195    1.3470   -0.7094 C   0  0  0  0  0  0  0  0  0  0  0  0
   11.7465    1.6328   -0.7889 C   0  0  0  0  0  0  0  0  0  0  0  0
   10.7876    0.7943   -0.1955 C   0  0  0  0  0  0  0  0  0  0  0  0
    9.4140    1.0803   -0.2751 C   0  0  0  0  0  0  0  0  0  0  0  0
    8.4545    0.2429    0.3183 C   0  0  0  0  0  0  0  0  0  0  0  0
    7.0791    0.5292    0.2396 C   0  0  0  0  0  0  0  0  0  0  0  0
    4.1840    1.2425    1.1818 C   0  0  0  0  0  0  0  0  0  0  0  0
    2.8210    1.5417    1.0966 C   0  0  0  0  0  0  0  0  0  0  0  0
    1.9153    0.6144    0.5620 C   0  0  0  0  0  0  0  0  0  0  0  0
    0.5431    0.8998    0.4685 C   0  0  0  0  0  0  0  0  0  0  0  0
   -0.3636   -0.0294   -0.0689 C   0  0  0  0  0  0  0  0  0  0  0  0
   -1.7365    0.2559   -0.1630 C   0  0  0  0  0  0  0  0  0  0  0  0
   -2.6435   -0.6727   -0.7005 C   0  0  0  0  0  0  0  0  0  0  0  0
   -4.0182   -0.3879   -0.7943 C   0  0  0  0  0  0  0  0  0  0  0  0
   -7.0950   -0.6235   -0.2807 C   0  0  0  0  0  0  0  0  0  0  0  0
   -8.4667   -0.3162   -0.3473 C   0  0  0  0  0  0  0  0  0  0  0  0
   -9.1930    0.0538    0.7971 C   0  0  0  0  0  0  0  0  0  0  0  0
  -10.5625    0.3619    0.7298 C   0  0  0  0  0  0  0  0  0  0  0  0
  -11.2875    0.7326    1.8750 C   0  0  0  0  0  0  0  0  0  0  0  0
  -12.6563    1.0414    1.8080 C   0  0  0  0  0  0  0  0  0  0  0  0
  -13.3812    1.4124    2.9526 C   0  0  0  0  0  0  0  0  0  0  0  0
  -14.7409    1.7166    2.8696 C   0  0  0  0  0  0  0  0  0  0  0  0
  -16.4517    1.8901    1.5750 H   0  0  0  0  0  0  0  0  0  0  0  0
  -15.2138    1.2430   -0.4545 H   0  0  0  0  0  0  0  0  0  0  0  0
  -13.1026    0.5572   -1.5412 H   0  0  0  0  0  0  0  0  0  0  0  0
  -11.0071   -0.1236   -2.6182 H   0  0  0  0  0  0  0  0  0  0  0  0
   -8.8941   -0.8074   -3.7010 H   0  0  0  0  0  0  0  0  0  0  0  0
   -6.5077   -1.3302   -3.5543 H   0  0  0  0  0  0  0  0  0  0  0  0
   -5.1087   -3.2873   -2.1970 H   0  0  0  0  0  0  0  0  0  0  0  0
   -2.7214   -3.8094   -2.0522 H   0  0  0  0  0  0  0  0  0  0  0  0
   -0.4233   -3.1641   -1.4152 H   0  0  0  0  0  0  0  0  0  0  0  0
    1.8566   -2.5210   -0.7814 H   0  0  0  0  0  0  0  0  0  0  0  0
    4.1403   -1.8742   -0.1575 H   0  0  0  0  0  0  0  0  0  0  0  0
    5.8448   -2.1136    1.9873 H   0  0  0  0  0  0  0  0  0  0  0  0
    8.2297   -2.6413    2.1357 H   0  0  0  0  0  0  0  0  0  0  0  0
   10.5808   -2.0876    1.6196 H   0  0  0  0  0  0  0  0  0  0  0  0
   12.9142   -1.5355    1.1073 H   0  0  0  0  0  0  0  0  0  0  0  0
   15.2653   -0.9787    0.5897 H   0  0  0  0  0  0  0  0  0  0  0  0
   16.9174    0.5147   -0.4634 H   0  0  0  0  0  0  0  0  0  0  0  0
   16.1698    2.5440   -1.6786 H   0  0  0  0  0  0  0  0  0  0  0  0
   13.7705    3.0790   -1.8397 H   0  0  0  0  0  0  0  0  0  0  0  0
   11.4190    2.5234   -1.3223 H   0  0  0  0  0  0  0  0  0  0  0  0
    9.0858    1.9708   -0.8085 H   0  0  0  0  0  0  0  0  0  0  0  0
    6.7496    1.4150   -0.3017 H   0  0  0  0  0  0  0  0  0  0  0  0
    4.8584    1.9805    1.6122 H   0  0  0  0  0  0  0  0  0  0  0  0
    2.4733    2.5080    1.4554 H   0  0  0  0  0  0  0  0  0  0  0  0
    0.1745    1.8621    0.8194 H   0  0  0  0  0  0  0  0  0  0  0  0
   -2.1058    1.2179    0.1879 H   0  0  0  0  0  0  0  0  0  0  0  0
   -4.3870    0.5780   -0.4517 H   0  0  0  0  0  0  0  0  0  0  0  0
   -6.5863   -0.5834    0.6816 H   0  0  0  0  0  0  0  0  0  0  0  0
   -8.6830    0.1029    1.7577 H   0  0  0  0  0  0  0  0  0  0  0  0
  -10.7780    0.7820    2.8357 H   0  0  0  0  0  0  0  0  0  0  0  0
  -12.8890    1.4674    3.9210 H   0  0  0  0  0  0  0  0  0  0  0  0
  -15.2891    2.0023    3.7635 H   0  0  0  0  0  0  0  0  0  0  0  0
  1  2  4  0
  2  3  4  0
  3  4  4  0
  4  5  4  0
  5  6  4  0
  6  7  4  0
  7  8  4  0
  8  9  4  0
  9 10  4  0
 10 11  1  0
 11 12  4  0
 12 13  4  0
 13 14  4  0
 14 15  4  0
 15 16  4  0
 16 17  4  0
 17 18  4  0
 18 19  4  0
 19 20  4  0
 20 21  1  0
 21 22  4  0
 22 23  4  0
 23 24  4  0
 24 25  4  0
 25 26  4  0
 26 27  4  0
 27 28  4  0
 28 29  4  0
 29 30  4  0
 30 31  4  0
 31 32  4  0
 32 33  4  0
 33 34  4  0
 34 35  4  0
 35 36  4  0
 36 37  4  0
 37 38  4  0
 20 39  4  0
 39 40  4  0
 40 41  4  0
 41 42  4  0
 42 43  4  0
 43 44  4  0
 44 45  4  0
 45 46  4  0
 10 47  4  0
 47 48  4  0
 48 49  4  0
 49 50  4  0
 50 51  4  0
 51 52  4  0
 52 53  4  0
 53 54  4  0
 54  1  4  0
 52  3  4  0
 50  5  4  0
 48  7  4  0
 46 11  4  0
 45 14  4  0
 43 16  4  0
 41 18  4  0
 38 21  4  0
 37 24  4  0
 35 26  4  0
 33 28  4  0
  1 55  1  0
  2 56  1  0
  4 57  1  0
  6 58  1  0
  8 59  1  0
  9 60  1  0
 12 61  1  0
 13 62  1  0
 15 63  1  0
 17 64  1  0
 19 65  1  0
 22 66  1  0
 23 67  1  0
 25 68  1  0
 27 69  1  0
 29 70  1  0
 30 71  1  0
 31 72  1  0
 32 73  1  0
 34 74  1  0
 36 75  1  0
 38 76  1  0
 39 77  1  0
 40 78  1  0
 42 79  1  0
 44 80  1  0
 46 81  1  0
 47 82  1  0
 49 83  1  0
 51 84  1  0
 53 85  1  0
 54 86  1  0
M  END
