
     RDKit          3D

 86 97  0  0  0  0  0  0  0  0999 V2000
   -7.2342   -4.5531   -3.2397 C   0  0  0  0  0  0  0  0  0  0  0  0
   -5.9046   -4.1610   -3.2762 C   0  0  0  0  0  0  0  0  0  0  0  0
   -5.5207   -2.9547   -2.6856 C   0  0  0  0  0  0  0  0  0  0  0  0
   -6.4517   -2.1021   -2.0394 C   0  0  0  0  0  0  0  0  0  0  0  0
   -7.8001   -2.5217   -2.0150 C   0  0  0  0  0  0  0  0  0  0  0  0
   -8.1748   -3.7381   -2.6132 C   0  0  0  0  0  0  0  0  0  0  0  0
   -8.7658   -1.7218   -1.3922 C   0  0  0  0  0  0  0  0  0  0  0  0
   -8.4389   -0.5038   -0.7826 C   0  0  0  0  0  0  0  0  0  0  0  0
   -9.4447    0.2647   -0.1689 C   0  0  0  0  0  0  0  0  0  0  0  0
   -9.1624    1.4893    0.4537 C   0  0  0  0  0  0  0  0  0  0  0  0
  -10.1692    2.2556    1.0659 C   0  0  0  0  0  0  0  0  0  0  0  0
   -9.8669    3.4719    1.6802 C   0  0  0  0  0  0  0  0  0  0  0  0
   -8.5557    3.9363    1.6902 C   0  0  0  0  0  0  0  0  0  0  0  0
   -7.5466    3.1844    1.0860 C   0  0  0  0  0  0  0  0  0  0  0  0
   -7.8366    1.9581    0.4634 C   0  0  0  0  0  0  0  0  0  0  0  0
   -6.8343    1.1863   -0.1512 C   0  0  0  0  0  0  0  0  0  0  0  0
   -7.1020   -0.0537   -0.7867 C   0  0  0  0  0  0  0  0  0  0  0  0
   -6.1006   -0.8585   -1.4211 C   0  0  0  0  0  0  0  0  0  0  0  0
   -4.6928   -0.4044   -1.4389 C   0  0  0  0  0  0  0  0  0  0  0  0
   -4.2159    0.4044   -2.4781 C   0  0  0  0  0  0  0  0  0  0  0  0
   -2.8837    0.8230   -2.4994 C   0  0  0  0  0  0  0  0  0  0  0  0
   -1.9961    0.4409   -1.4823 C   0  0  0  0  0  0  0  0  0  0  0  0
   -0.6521    0.8477   -1.4935 C   0  0  0  0  0  0  0  0  0  0  0  0
    0.2380    0.4616   -0.4773 C   0  0  0  0  0  0  0  0  0  0  0  0
    1.5840    0.8635   -0.4917 C   0  0  0  0  0  0  0  0  0  0  0  0
    2.4753    0.4733    0.5211 C   0  0  0  0  0  0  0  0  0  0  0  0
    3.8236    0.8677    0.5010 C   0  0  0  0  0  0  0  0  0  0  0  0
    4.7150    0.4707    1.5106 C   0  0  0  0  0  0  0  0  0  0  0  0
    6.1364    0.8762    1.4630 C   0  0  0  0  0  0  0  0  0  0  0  0
    7.0893    0.0420    0.7928 C   0  0  0  0  0  0  0  0  0  0  0  0
    6.7560   -1.1777    0.1492 C   0  0  0  0  0  0  0  0  0  0  0  0
    7.7103   -1.9805   -0.4997 C   0  0  0  0  0  0  0  0  0  0  0  0
    7.3541   -3.1857   -1.1285 C   0  0  0  0  0  0  0  0  0  0  0  0
    8.3162   -3.9702   -1.7665 C   0  0  0  0  0  0  0  0  0  0  0  0
    9.6454   -3.5597   -1.7845 C   0  0  0  0  0  0  0  0  0  0  0  0
   10.0125   -2.3644   -1.1643 C   0  0  0  0  0  0  0  0  0  0  0  0
    9.0537   -1.5654   -0.5181 C   0  0  0  0  0  0  0  0  0  0  0  0
    9.4006   -0.3610    0.1116 C   0  0  0  0  0  0  0  0  0  0  0  0
    8.4422    0.4390    0.7601 C   0  0  0  0  0  0  0  0  0  0  0  0
    8.8314    1.6349    1.3768 C   0  0  0  0  0  0  0  0  0  0  0  0
    7.9134    2.4631    2.0341 C   0  0  0  0  0  0  0  0  0  0  0  0
    8.3502    3.6553    2.6386 C   0  0  0  0  0  0  0  0  0  0  0  0
    7.4579    4.4974    3.2989 C   0  0  0  0  0  0  0  0  0  0  0  0
    6.1149    4.1573    3.3628 C   0  0  0  0  0  0  0  0  0  0  0  0
    5.6691    2.9754    2.7663 C   0  0  0  0  0  0  0  0  0  0  0  0
    6.5503    2.0963    2.0872 C   0  0  0  0  0  0  0  0  0  0  0  0
    4.2352   -0.3282    2.5560 C   0  0  0  0  0  0  0  0  0  0  0  0
    2.8973   -0.7267    2.5895 C   0  0  0  0  0  0  0  0  0  0  0  0
    2.0076   -0.3353    1.5777 C   0  0  0  0  0  0  0  0  0  0  0  0
    0.6617   -0.7348    1.5931 C   0  0  0  0  0  0  0  0  0  0  0  0
   -0.2282   -0.3481    0.5771 C   0  0  0  0  0  0  0  0  0  0  0  0
   -1.5729   -0.7539    0.5893 C   0  0  0  0  0  0  0  0  0  0  0  0
   -2.4624   -0.3710   -0.4277 C   0  0  0  0  0  0  0  0  0  0  0  0
   -3.8059   -0.7826   -0.4180 C   0  0  0  0  0  0  0  0  0  0  0  0
   -7.5413   -5.4898   -3.6967 H   0  0  0  0  0  0  0  0  0  0  0  0
   -5.1613   -4.7877   -3.7619 H   0  0  0  0  0  0  0  0  0  0  0  0
   -4.4676   -2.6836   -2.7370 H   0  0  0  0  0  0  0  0  0  0  0  0
   -9.2132   -4.0628   -2.5950 H   0  0  0  0  0  0  0  0  0  0  0  0
   -9.8022   -2.0576   -1.3818 H   0  0  0  0  0  0  0  0  0  0  0  0
  -10.4715   -0.0976   -0.1754 H   0  0  0  0  0  0  0  0  0  0  0  0
  -11.1999    1.9081    1.0680 H   0  0  0  0  0  0  0  0  0  0  0  0
  -10.6551    4.0544    2.1499 H   0  0  0  0  0  0  0  0  0  0  0  0
   -8.3158    4.8826    2.1677 H   0  0  0  0  0  0  0  0  0  0  0  0
   -6.5268    3.5628    1.1037 H   0  0  0  0  0  0  0  0  0  0  0  0
   -5.8143    1.5676   -0.1313 H   0  0  0  0  0  0  0  0  0  0  0  0
   -4.8847    0.7101   -3.2804 H   0  0  0  0  0  0  0  0  0  0  0  0
   -2.5450    1.4495   -3.3217 H   0  0  0  0  0  0  0  0  0  0  0  0
   -0.2924    1.4735   -2.3083 H   0  0  0  0  0  0  0  0  0  0  0  0
    1.9456    1.4878   -1.3071 H   0  0  0  0  0  0  0  0  0  0  0  0
    4.1945    1.4887   -0.3134 H   0  0  0  0  0  0  0  0  0  0  0  0
    5.7213   -1.5182    0.1506 H   0  0  0  0  0  0  0  0  0  0  0  0
    6.3193   -3.5220   -1.1241 H   0  0  0  0  0  0  0  0  0  0  0  0
    8.0260   -4.9006   -2.2473 H   0  0  0  0  0  0  0  0  0  0  0  0
   10.3973   -4.1683   -2.2798 H   0  0  0  0  0  0  0  0  0  0  0  0
   11.0562   -2.0593   -1.1880 H   0  0  0  0  0  0  0  0  0  0  0  0
   10.4411   -0.0402    0.0964 H   0  0  0  0  0  0  0  0  0  0  0  0
    9.8795    1.9303    1.3443 H   0  0  0  0  0  0  0  0  0  0  0  0
    9.3999    3.9395    2.5989 H   0  0  0  0  0  0  0  0  0  0  0  0
    7.8127    5.4149    3.7603 H   0  0  0  0  0  0  0  0  0  0  0  0
    5.4092    4.8064    3.8746 H   0  0  0  0  0  0  0  0  0  0  0  0
    4.6075    2.7452    2.8386 H   0  0  0  0  0  0  0  0  0  0  0  0
    4.9079   -0.6487    3.3492 H   0  0  0  0  0  0  0  0  0  0  0  0
    2.5579   -1.3513    3.4127 H   0  0  0  0  0  0  0  0  0  0  0  0
    0.3009   -1.3599    2.4080 H   0  0  0  0  0  0  0  0  0  0  0  0
   -1.9338   -1.3803    1.4034 H   0  0  0  0  0  0  0  0  0  0  0  0
   -4.1740   -1.4117    0.3914 H   0  0  0  0  0  0  0  0  0  0  0  0
  1  2  4  0
  2  3  4  0
  3  4  4  0
  4  5  4  0
  5  6  4  0
  5  7  4  0
  7  8  4  0
  8  9  4  0
  9 10  4  0
 10 11  4  0
 11 12  4  0
 12 13  4  0
 13 14  4  0
 14 15  4  0
 15 16  4  0
 16 17  4  0
 17 18  4  0
 18 19  1  0
 19 20  4  0
 20 21  4  0
 21 22  4  0
 22 23  4  0
 23 24  4  0
 24 25  4  0
 25 26  4  0
 26 27  4  0
 27 28  4  0
 28 29  1  0
 29 30  4  0
 30 31  4  0
 31 32  4  0
 32 33  4  0
 33 34  4  0
 34 35  4  0
 35 36  4  0
 36 37  4  0
 37 38  4  0
 38 39  4  0
 39 40  4  0
 40 41  4  0
 41 42  4  0
 42 43  4  0
 43 44  4  0
 44 45  4  0
 45 46  4  0
 28 47  4  0
 47 48  4  0
 48 49  4  0
 49 50  4  0
 50 51  4  0
 51 52  4  0
 52 53  4  0
 53 54  4  0
  6  1  4  0
 17  8  4  0
 54 19  4  0
 18  4  4  0
 53 22  4  0
 15 10  4  0
 51 24  4  0
 49 26  4  0
 46 29  4  0
 39 30  4  0
 46 41  4  0
 37 32  4  0
  1 55  1  0
  2 56  1  0
  3 57  1  0
  6 58  1  0
  7 59  1  0
  9 60  1  0
 11 61  1  0
 12 62  1  0
 13 63  1  0
 14 64  1  0
 16 65  1  0
 20 66  1  0
 21 67  1  0
 23 68  1  0
 25 69  1  0
 27 70  1  0
 31 71  1  0
 33 72  1  0
 34 73  1  0
 35 74  1  0
 36 75  1  0
 38 76  1  0
 40 77  1  0
 42 78  1  0
 43 79  1  0
 44 80  1  0
 45 81  1  0
 47 82  1  0
 48 83  1  0
 50 84  1  0
 52 85  1  0
 54 86  1  0
M  END
