
     RDKit          3D

 98111  0  0  0  0  0  0  0  0999 V2000
   -8.2327    1.6094    6.2619 C   0  0  0  0  0  0  0  0  0  0  0  0
   -6.8510    1.7670    6.2228 C   0  0  0  0  0  0  0  0  0  0  0  0
   -6.1769    1.6979    5.0029 C   0  0  0  0  0  0  0  0  0  0  0  0
   -6.8771    1.4701    3.8059 C   0  0  0  0  0  0  0  0  0  0  0  0
   -6.2159    1.3983    2.5671 C   0  0  0  0  0  0  0  0  0  0  0  0
   -6.8986    1.1706    1.3446 C   0  0  0  0  0  0  0  0  0  0  0  0
   -8.2984    1.0123    1.4094 C   0  0  0  0  0  0  0  0  0  0  0  0
   -8.9647    1.0831    2.6464 C   0  0  0  0  0  0  0  0  0  0  0  0
   -8.2737    1.3103    3.8456 C   0  0  0  0  0  0  0  0  0  0  0  0
   -8.9407    1.3822    5.0807 C   0  0  0  0  0  0  0  0  0  0  0  0
   -9.0272    0.7848    0.2353 C   0  0  0  0  0  0  0  0  0  0  0  0
   -8.4096    0.7087   -1.0193 C   0  0  0  0  0  0  0  0  0  0  0  0
   -9.1855    0.4807   -2.1705 C   0  0  0  0  0  0  0  0  0  0  0  0
   -8.6082    0.3994   -3.4462 C   0  0  0  0  0  0  0  0  0  0  0  0
   -9.3848    0.1733   -4.5958 C   0  0  0  0  0  0  0  0  0  0  0  0
   -8.7893    0.0962   -5.8556 C   0  0  0  0  0  0  0  0  0  0  0  0
   -7.4116    0.2437   -5.9815 C   0  0  0  0  0  0  0  0  0  0  0  0
   -6.6293    0.4687   -4.8477 C   0  0  0  0  0  0  0  0  0  0  0  0
   -7.2156    0.5491   -3.5731 C   0  0  0  0  0  0  0  0  0  0  0  0
   -6.4444    0.7762   -2.4193 C   0  0  0  0  0  0  0  0  0  0  0  0
   -7.0116    0.8626   -1.1217 C   0  0  0  0  0  0  0  0  0  0  0  0
   -6.2498    1.0958    0.0693 C   0  0  0  0  0  0  0  0  0  0  0  0
   -4.7826    1.2661   -0.0191 C   0  0  0  0  0  0  0  0  0  0  0  0
   -4.2218    2.5372   -0.1960 C   0  0  0  0  0  0  0  0  0  0  0  0
   -2.8371    2.6980   -0.2807 C   0  0  0  0  0  0  0  0  0  0  0  0
   -1.9796    1.5909   -0.1918 C   0  0  0  0  0  0  0  0  0  0  0  0
   -0.5854    1.7369   -0.2779 C   0  0  0  0  0  0  0  0  0  0  0  0
    0.2740    0.6288   -0.1912 C   0  0  0  0  0  0  0  0  0  0  0  0
    1.6684    0.7757   -0.2795 C   0  0  0  0  0  0  0  0  0  0  0  0
    2.5287   -0.3307   -0.1895 C   0  0  0  0  0  0  0  0  0  0  0  0
    3.9235   -0.1818   -0.2734 C   0  0  0  0  0  0  0  0  0  0  0  0
    4.7836   -1.2874   -0.1724 C   0  0  0  0  0  0  0  0  0  0  0  0
    6.2505   -1.1094   -0.2436 C   0  0  0  0  0  0  0  0  0  0  0  0
    6.9864   -0.8085    0.9486 C   0  0  0  0  0  0  0  0  0  0  0  0
    6.3931   -0.6674    2.2297 C   0  0  0  0  0  0  0  0  0  0  0  0
    7.1379   -0.3677    3.3839 C   0  0  0  0  0  0  0  0  0  0  0  0
    6.5259   -0.2303    4.6414 C   0  0  0  0  0  0  0  0  0  0  0  0
    7.2824    0.0684    5.7755 C   0  0  0  0  0  0  0  0  0  0  0  0
    8.6595    0.2333    5.6669 C   0  0  0  0  0  0  0  0  0  0  0  0
    9.2803    0.0991    4.4241 C   0  0  0  0  0  0  0  0  0  0  0  0
    8.5299   -0.2013    3.2746 C   0  0  0  0  0  0  0  0  0  0  0  0
    9.1335   -0.3404    2.0163 C   0  0  0  0  0  0  0  0  0  0  0  0
    8.3836   -0.6392    0.8644 C   0  0  0  0  0  0  0  0  0  0  0  0
    9.0263   -0.7696   -0.3729 C   0  0  0  0  0  0  0  0  0  0  0  0
    8.3230   -1.0641   -1.5474 C   0  0  0  0  0  0  0  0  0  0  0  0
    9.0142   -1.1851   -2.7665 C   0  0  0  0  0  0  0  0  0  0  0  0
    8.3493   -1.4771   -3.9661 C   0  0  0  0  0  0  0  0  0  0  0  0
    9.0417   -1.5986   -5.1830 C   0  0  0  0  0  0  0  0  0  0  0  0
    8.3604   -1.8894   -6.3658 C   0  0  0  0  0  0  0  0  0  0  0  0
    6.9800   -2.0616   -6.3464 C   0  0  0  0  0  0  0  0  0  0  0  0
    6.2808   -1.9433   -5.1443 C   0  0  0  0  0  0  0  0  0  0  0  0
    6.9539   -1.6513   -3.9459 C   0  0  0  0  0  0  0  0  0  0  0  0
    6.2674   -1.5287   -2.7247 C   0  0  0  0  0  0  0  0  0  0  0  0
    6.9241   -1.2369   -1.5015 C   0  0  0  0  0  0  0  0  0  0  0  0
    4.2255   -2.5591    0.0081 C   0  0  0  0  0  0  0  0  0  0  0  0
    2.8405   -2.7225    0.0878 C   0  0  0  0  0  0  0  0  0  0  0  0
    1.9810   -1.6173   -0.0072 C   0  0  0  0  0  0  0  0  0  0  0  0
    0.5867   -1.7641    0.0780 C   0  0  0  0  0  0  0  0  0  0  0  0
   -0.2737   -0.6565   -0.0110 C   0  0  0  0  0  0  0  0  0  0  0  0
   -1.6686   -0.8026    0.0767 C   0  0  0  0  0  0  0  0  0  0  0  0
   -2.5290    0.3044   -0.0126 C   0  0  0  0  0  0  0  0  0  0  0  0
   -3.9245    0.1579    0.0722 C   0  0  0  0  0  0  0  0  0  0  0  0
   -8.7605    1.6633    7.2103 H   0  0  0  0  0  0  0  0  0  0  0  0
   -6.2955    1.9441    7.1400 H   0  0  0  0  0  0  0  0  0  0  0  0
   -5.0963    1.8235    4.9913 H   0  0  0  0  0  0  0  0  0  0  0  0
   -5.1341    1.5250    2.5601 H   0  0  0  0  0  0  0  0  0  0  0  0
  -10.0462    0.9597    2.6780 H   0  0  0  0  0  0  0  0  0  0  0  0
  -10.0206    1.2617    5.1306 H   0  0  0  0  0  0  0  0  0  0  0  0
  -10.1082    0.6645    0.2999 H   0  0  0  0  0  0  0  0  0  0  0  0
  -10.2638    0.3646   -2.0731 H   0  0  0  0  0  0  0  0  0  0  0  0
  -10.4632    0.0554   -4.5166 H   0  0  0  0  0  0  0  0  0  0  0  0
   -9.4012   -0.0791   -6.7365 H   0  0  0  0  0  0  0  0  0  0  0  0
   -6.9439    0.1840   -6.9607 H   0  0  0  0  0  0  0  0  0  0  0  0
   -5.5536    0.5817   -4.9645 H   0  0  0  0  0  0  0  0  0  0  0  0
   -5.3679    0.8893   -2.5411 H   0  0  0  0  0  0  0  0  0  0  0  0
   -4.8665    3.4112   -0.2691 H   0  0  0  0  0  0  0  0  0  0  0  0
   -2.4342    3.6991   -0.4176 H   0  0  0  0  0  0  0  0  0  0  0  0
   -0.1620    2.7304   -0.4145 H   0  0  0  0  0  0  0  0  0  0  0  0
    2.0928    1.7686   -0.4195 H   0  0  0  0  0  0  0  0  0  0  0  0
    4.3555    0.8084   -0.4131 H   0  0  0  0  0  0  0  0  0  0  0  0
    5.3166   -0.7936    2.3380 H   0  0  0  0  0  0  0  0  0  0  0  0
    5.4500   -0.3557    4.7443 H   0  0  0  0  0  0  0  0  0  0  0  0
    6.7953    0.1718    6.7416 H   0  0  0  0  0  0  0  0  0  0  0  0
    9.2516    0.4657    6.5481 H   0  0  0  0  0  0  0  0  0  0  0  0
   10.3579    0.2308    4.3584 H   0  0  0  0  0  0  0  0  0  0  0  0
   10.2116   -0.2124    1.9331 H   0  0  0  0  0  0  0  0  0  0  0  0
   10.1067   -0.6374   -0.4233 H   0  0  0  0  0  0  0  0  0  0  0  0
   10.0945   -1.0492   -2.7835 H   0  0  0  0  0  0  0  0  0  0  0  0
   10.1208   -1.4668   -5.2175 H   0  0  0  0  0  0  0  0  0  0  0  0
    8.9078   -1.9805   -7.3002 H   0  0  0  0  0  0  0  0  0  0  0  0
    6.4458   -2.2877   -7.2654 H   0  0  0  0  0  0  0  0  0  0  0  0
    5.2015   -2.0809   -5.1482 H   0  0  0  0  0  0  0  0  0  0  0  0
    5.1870   -1.6656   -2.7325 H   0  0  0  0  0  0  0  0  0  0  0  0
    4.8722   -3.4308    0.0899 H   0  0  0  0  0  0  0  0  0  0  0  0
    2.4393   -3.7236    0.2297 H   0  0  0  0  0  0  0  0  0  0  0  0
    0.1641   -2.7574    0.2193 H   0  0  0  0  0  0  0  0  0  0  0  0
   -2.0930   -1.7956    0.2163 H   0  0  0  0  0  0  0  0  0  0  0  0
   -4.3577   -0.8319    0.2106 H   0  0  0  0  0  0  0  0  0  0  0  0
  1  2  4  0
  2  3  4  0
  3  4  4  0
  4  5  4  0
  5  6  4  0
  6  7  4  0
  7  8  4  0
  8  9  4  0
  9 10  4  0
  7 11  4  0
 11 12  4  0
 12 13  4  0
 13 14  4  0
 14 15  4  0
 15 16  4  0
 16 17  4  0
 17 18  4  0
 18 19  4  0
 19 20  4  0
 20 21  4  0
 21 22  4  0
 22 23  1  0
 23 24  4  0
 24 25  4  0
 25 26  4  0
 26 27  4  0
 27 28  4  0
 28 29  4  0
 29 30  4  0
 30 31  4  0
 31 32  4  0
 32 33  1  0
 33 34  4  0
 34 35  4  0
 35 36  4  0
 36 37  4  0
 37 38  4  0
 38 39  4  0
 39 40  4  0
 40 41  4  0
 41 42  4  0
 42 43  4  0
 43 44  4  0
 44 45  4  0
 45 46  4  0
 46 47  4  0
 47 48  4  0
 48 49  4  0
 49 50  4  0
 50 51  4  0
 51 52  4  0
 52 53  4  0
 53 54  4  0
 32 55  4  0
 55 56  4  0
 56 57  4  0
 57 58  4  0
 58 59  4  0
 59 60  4  0
 60 61  4  0
 61 62  4  0
 10  1  4  0
 21 12  4  0
 62 23  4  0
  9  4  4  0
 19 14  4  0
 61 26  4  0
 22  6  4  0
 59 28  4  0
 57 30  4  0
 54 33  4  0
 43 34  4  0
 54 45  4  0
 41 36  4  0
 52 47  4  0
  1 63  1  0
  2 64  1  0
  3 65  1  0
  5 66  1  0
  8 67  1  0
 10 68  1  0
 11 69  1  0
 13 70  1  0
 15 71  1  0
 16 72  1  0
 17 73  1  0
 18 74  1  0
 20 75  1  0
 24 76  1  0
 25 77  1  0
 27 78  1  0
 29 79  1  0
 31 80  1  0
 35 81  1  0
 37 82  1  0
 38 83  1  0
 39 84  1  0
 40 85  1  0
 42 86  1  0
 44 87  1  0
 46 88  1  0
 48 89  1  0
 49 90  1  0
 50 91  1  0
 51 92  1  0
 53 93  1  0
 55 94  1  0
 56 95  1  0
 58 96  1  0
 60 97  1  0
 62 98  1  0
M  END
