
     RDKit          3D

 98111  0  0  0  0  0  0  0  0999 V2000
    6.0835   -6.8597    1.6795 C   0  0  0  0  0  0  0  0  0  0  0  0
    4.8593   -6.2423    1.8872 C   0  0  0  0  0  0  0  0  0  0  0  0
    4.7281   -4.8690    1.6667 C   0  0  0  0  0  0  0  0  0  0  0  0
    5.8156   -4.0689    1.2331 C   0  0  0  0  0  0  0  0  0  0  0  0
    7.0518   -4.7202    1.0259 C   0  0  0  0  0  0  0  0  0  0  0  0
    7.1717   -6.1029    1.2512 C   0  0  0  0  0  0  0  0  0  0  0  0
    8.1614   -3.9848    0.5932 C   0  0  0  0  0  0  0  0  0  0  0  0
    8.0897   -2.6069    0.3541 C   0  0  0  0  0  0  0  0  0  0  0  0
    9.2312   -1.9116   -0.0831 C   0  0  0  0  0  0  0  0  0  0  0  0
    9.2049   -0.5323   -0.3366 C   0  0  0  0  0  0  0  0  0  0  0  0
   10.3478    0.1581   -0.7759 C   0  0  0  0  0  0  0  0  0  0  0  0
   10.3162    1.5391   -1.0299 C   0  0  0  0  0  0  0  0  0  0  0  0
   11.4571    2.2308   -1.4698 C   0  0  0  0  0  0  0  0  0  0  0  0
   11.4085    3.6033   -1.7183 C   0  0  0  0  0  0  0  0  0  0  0  0
   10.2197    4.3015   -1.5302 C   0  0  0  0  0  0  0  0  0  0  0  0
    9.0779    3.6281   -1.0931 C   0  0  0  0  0  0  0  0  0  0  0  0
    9.1108    2.2469   -0.8388 C   0  0  0  0  0  0  0  0  0  0  0  0
    7.9710    1.5535   -0.3987 C   0  0  0  0  0  0  0  0  0  0  0  0
    8.0051    0.1710   -0.1457 C   0  0  0  0  0  0  0  0  0  0  0  0
    6.8660   -0.5277    0.2937 C   0  0  0  0  0  0  0  0  0  0  0  0
    6.8728   -1.9227    0.5525 C   0  0  0  0  0  0  0  0  0  0  0  0
    5.7265   -2.6590    0.9969 C   0  0  0  0  0  0  0  0  0  0  0  0
    4.4416   -1.9583    1.2121 C   0  0  0  0  0  0  0  0  0  0  0  0
    4.1087   -1.4463    2.4725 C   0  0  0  0  0  0  0  0  0  0  0  0
    2.8959   -0.7833    2.6731 C   0  0  0  0  0  0  0  0  0  0  0  0
    1.9873   -0.6146    1.6171 C   0  0  0  0  0  0  0  0  0  0  0  0
    0.7641    0.0506    1.8023 C   0  0  0  0  0  0  0  0  0  0  0  0
   -0.1433    0.2242    0.7434 C   0  0  0  0  0  0  0  0  0  0  0  0
   -1.3658    0.8923    0.9279 C   0  0  0  0  0  0  0  0  0  0  0  0
   -2.2701    1.0715   -0.1319 C   0  0  0  0  0  0  0  0  0  0  0  0
   -3.4901    1.7447    0.0515 C   0  0  0  0  0  0  0  0  0  0  0  0
   -4.3889    1.9311   -1.0115 C   0  0  0  0  0  0  0  0  0  0  0  0
   -5.6625    2.6548   -0.8042 C   0  0  0  0  0  0  0  0  0  0  0  0
   -6.8481    1.9284   -0.4575 C   0  0  0  0  0  0  0  0  0  0  0  0
   -6.8937    0.5203   -0.2908 C   0  0  0  0  0  0  0  0  0  0  0  0
   -8.0726   -0.1693    0.0471 C   0  0  0  0  0  0  0  0  0  0  0  0
   -8.0916   -1.5664    0.2037 C   0  0  0  0  0  0  0  0  0  0  0  0
   -9.2715   -2.2510    0.5402 C   0  0  0  0  0  0  0  0  0  0  0  0
   -9.2922   -3.6471    0.6957 C   0  0  0  0  0  0  0  0  0  0  0  0
  -10.4732   -4.3112    1.0310 C   0  0  0  0  0  0  0  0  0  0  0  0
  -11.6482   -3.5890    1.2146 C   0  0  0  0  0  0  0  0  0  0  0  0
  -11.6440   -2.2016    1.0629 C   0  0  0  0  0  0  0  0  0  0  0  0
  -10.4632   -1.5189    0.7258 C   0  0  0  0  0  0  0  0  0  0  0  0
  -10.4417   -0.1232    0.5689 C   0  0  0  0  0  0  0  0  0  0  0  0
   -9.2591    0.5581    0.2314 C   0  0  0  0  0  0  0  0  0  0  0  0
   -9.2325    1.9515    0.0730 C   0  0  0  0  0  0  0  0  0  0  0  0
   -8.0521    2.6371   -0.2660 C   0  0  0  0  0  0  0  0  0  0  0  0
   -8.0724    4.0296   -0.4140 C   0  0  0  0  0  0  0  0  0  0  0  0
   -6.9241    4.7557   -0.7512 C   0  0  0  0  0  0  0  0  0  0  0  0
   -6.9929    6.1535   -0.8890 C   0  0  0  0  0  0  0  0  0  0  0  0
   -5.8659    6.9004   -1.2248 C   0  0  0  0  0  0  0  0  0  0  0  0
   -4.6541    6.2577   -1.4277 C   0  0  0  0  0  0  0  0  0  0  0  0
   -4.5736    4.8697   -1.2937 C   0  0  0  0  0  0  0  0  0  0  0  0
   -5.7006    4.0793   -0.9523 C   0  0  0  0  0  0  0  0  0  0  0  0
   -4.0515    1.4250   -2.2731 C   0  0  0  0  0  0  0  0  0  0  0  0
   -2.8446    0.7499   -2.4690 C   0  0  0  0  0  0  0  0  0  0  0  0
   -1.9444    0.5679   -1.4083 C   0  0  0  0  0  0  0  0  0  0  0  0
   -0.7244   -0.1030   -1.5914 C   0  0  0  0  0  0  0  0  0  0  0  0
    0.1806   -0.2805   -0.5314 C   0  0  0  0  0  0  0  0  0  0  0  0
    1.4026   -0.9490   -0.7162 C   0  0  0  0  0  0  0  0  0  0  0  0
    2.3099   -1.1228    0.3417 C   0  0  0  0  0  0  0  0  0  0  0  0
    3.5324   -1.7905    0.1552 C   0  0  0  0  0  0  0  0  0  0  0  0
    6.1937   -7.9274    1.8484 H   0  0  0  0  0  0  0  0  0  0  0  0
    4.0029   -6.8228    2.2197 H   0  0  0  0  0  0  0  0  0  0  0  0
    3.7498   -4.4235    1.8389 H   0  0  0  0  0  0  0  0  0  0  0  0
    8.1238   -6.6056    1.0923 H   0  0  0  0  0  0  0  0  0  0  0  0
    9.1081   -4.5008    0.4367 H   0  0  0  0  0  0  0  0  0  0  0  0
   10.1626   -2.4563   -0.2310 H   0  0  0  0  0  0  0  0  0  0  0  0
   11.2773   -0.3885   -0.9229 H   0  0  0  0  0  0  0  0  0  0  0  0
   12.3953    1.7023   -1.6224 H   0  0  0  0  0  0  0  0  0  0  0  0
   12.2989    4.1256   -2.0583 H   0  0  0  0  0  0  0  0  0  0  0  0
   10.1794    5.3703   -1.7229 H   0  0  0  0  0  0  0  0  0  0  0  0
    8.1579    4.1910   -0.9518 H   0  0  0  0  0  0  0  0  0  0  0  0
    7.0403    2.0987   -0.2510 H   0  0  0  0  0  0  0  0  0  0  0  0
    5.9457    0.0373    0.4363 H   0  0  0  0  0  0  0  0  0  0  0  0
    4.7979   -1.5635    3.3068 H   0  0  0  0  0  0  0  0  0  0  0  0
    2.6681   -0.3975    3.6644 H   0  0  0  0  0  0  0  0  0  0  0  0
    0.5144    0.4417    2.7871 H   0  0  0  0  0  0  0  0  0  0  0  0
   -1.6176    1.2822    1.9128 H   0  0  0  0  0  0  0  0  0  0  0  0
   -3.7504    2.1375    1.0336 H   0  0  0  0  0  0  0  0  0  0  0  0
   -5.9839   -0.0629   -0.4276 H   0  0  0  0  0  0  0  0  0  0  0  0
   -7.1714   -2.1304    0.0608 H   0  0  0  0  0  0  0  0  0  0  0  0
   -8.3844   -4.2296    0.5558 H   0  0  0  0  0  0  0  0  0  0  0  0
  -10.4741   -5.3917    1.1483 H   0  0  0  0  0  0  0  0  0  0  0  0
  -12.5689   -4.1042    1.4759 H   0  0  0  0  0  0  0  0  0  0  0  0
  -12.5725   -1.6547    1.2103 H   0  0  0  0  0  0  0  0  0  0  0  0
  -11.3610    0.4419    0.7115 H   0  0  0  0  0  0  0  0  0  0  0  0
  -10.1532    2.5152    0.2166 H   0  0  0  0  0  0  0  0  0  0  0  0
   -9.0093    4.5645   -0.2625 H   0  0  0  0  0  0  0  0  0  0  0  0
   -7.9349    6.6761   -0.7344 H   0  0  0  0  0  0  0  0  0  0  0  0
   -5.9366    7.9798   -1.3272 H   0  0  0  0  0  0  0  0  0  0  0  0
   -3.7680    6.8296   -1.6903 H   0  0  0  0  0  0  0  0  0  0  0  0
   -3.6038    4.4045   -1.4619 H   0  0  0  0  0  0  0  0  0  0  0  0
   -4.7315    1.5579   -3.1125 H   0  0  0  0  0  0  0  0  0  0  0  0
   -2.6121    0.3699   -3.4614 H   0  0  0  0  0  0  0  0  0  0  0  0
   -0.4731   -0.4918   -2.5768 H   0  0  0  0  0  0  0  0  0  0  0  0
    1.6546   -1.3387   -1.7012 H   0  0  0  0  0  0  0  0  0  0  0  0
    3.7893   -2.1873   -0.8262 H   0  0  0  0  0  0  0  0  0  0  0  0
  1  2  4  0
  2  3  4  0
  3  4  4  0
  4  5  4  0
  5  6  4  0
  5  7  4  0
  7  8  4  0
  8  9  4  0
  9 10  4  0
 10 11  4  0
 11 12  4  0
 12 13  4  0
 13 14  4  0
 14 15  4  0
 15 16  4  0
 16 17  4  0
 17 18  4  0
 18 19  4  0
 19 20  4  0
 20 21  4  0
 21 22  4  0
 22 23  1  0
 23 24  4  0
 24 25  4  0
 25 26  4  0
 26 27  4  0
 27 28  4  0
 28 29  4  0
 29 30  4  0
 30 31  4  0
 31 32  4  0
 32 33  1  0
 33 34  4  0
 34 35  4  0
 35 36  4  0
 36 37  4  0
 37 38  4  0
 38 39  4  0
 39 40  4  0
 40 41  4  0
 41 42  4  0
 42 43  4  0
 43 44  4  0
 44 45  4  0
 45 46  4  0
 46 47  4  0
 47 48  4  0
 48 49  4  0
 49 50  4  0
 50 51  4  0
 51 52  4  0
 52 53  4  0
 53 54  4  0
 32 55  4  0
 55 56  4  0
 56 57  4  0
 57 58  4  0
 58 59  4  0
 59 60  4  0
 60 61  4  0
 61 62  4  0
  6  1  4  0
 21  8  4  0
 62 23  4  0
 22  4  4  0
 61 26  4  0
 19 10  4  0
 59 28  4  0
 17 12  4  0
 57 30  4  0
 54 33  4  0
 47 34  4  0
 54 49  4  0
 45 36  4  0
 43 38  4  0
  1 63  1  0
  2 64  1  0
  3 65  1  0
  6 66  1  0
  7 67  1  0
  9 68  1  0
 11 69  1  0
 13 70  1  0
 14 71  1  0
 15 72  1  0
 16 73  1  0
 18 74  1  0
 20 75  1  0
 24 76  1  0
 25 77  1  0
 27 78  1  0
 29 79  1  0
 31 80  1  0
 35 81  1  0
 37 82  1  0
 39 83  1  0
 40 84  1  0
 41 85  1  0
 42 86  1  0
 44 87  1  0
 46 88  1  0
 48 89  1  0
 50 90  1  0
 51 91  1  0
 52 92  1  0
 53 93  1  0
 55 94  1  0
 56 95  1  0
 58 96  1  0
 60 97  1  0
 62 98  1  0
M  END
