
     RDKit          3D

 98111  0  0  0  0  0  0  0  0999 V2000
  -18.1923    0.6726   -0.3053 C   0  0  0  0  0  0  0  0  0  0  0  0
  -17.1839    0.6962    0.6595 C   0  0  0  0  0  0  0  0  0  0  0  0
  -15.8301    0.6853    0.2850 C   0  0  0  0  0  0  0  0  0  0  0  0
  -14.8036    0.7086    1.2437 C   0  0  0  0  0  0  0  0  0  0  0  0
  -13.4494    0.6979    0.8682 C   0  0  0  0  0  0  0  0  0  0  0  0
  -12.4226    0.7212    1.8271 C   0  0  0  0  0  0  0  0  0  0  0  0
  -11.0683    0.7106    1.4527 C   0  0  0  0  0  0  0  0  0  0  0  0
  -10.0420    0.7335    2.4121 C   0  0  0  0  0  0  0  0  0  0  0  0
   -8.6885    0.7234    2.0368 C   0  0  0  0  0  0  0  0  0  0  0  0
   -7.6632    0.7451    2.9932 C   0  0  0  0  0  0  0  0  0  0  0  0
   -6.3209    0.7353    2.6028 C   0  0  0  0  0  0  0  0  0  0  0  0
   -5.9646    0.7053    1.2479 C   0  0  0  0  0  0  0  0  0  0  0  0
   -4.5525    0.6995    0.8357 C   0  0  0  0  0  0  0  0  0  0  0  0
   -4.0499    1.6828   -0.0267 C   0  0  0  0  0  0  0  0  0  0  0  0
   -2.7078    1.6783   -0.4177 C   0  0  0  0  0  0  0  0  0  0  0  0
   -1.8298    0.6866    0.0426 C   0  0  0  0  0  0  0  0  0  0  0  0
   -0.4788    0.6676   -0.3419 C   0  0  0  0  0  0  0  0  0  0  0  0
    0.4001   -0.3275    0.1180 C   0  0  0  0  0  0  0  0  0  0  0  0
    1.7517   -0.3469   -0.2667 C   0  0  0  0  0  0  0  0  0  0  0  0
    2.6312   -1.3418    0.1924 C   0  0  0  0  0  0  0  0  0  0  0  0
    3.9846   -1.3613   -0.1921 C   0  0  0  0  0  0  0  0  0  0  0  0
    4.8680   -2.3555    0.2621 C   0  0  0  0  0  0  0  0  0  0  0  0
    6.2805   -2.3588   -0.1495 C   0  0  0  0  0  0  0  0  0  0  0  0
    6.8483   -3.4790   -0.7712 C   0  0  0  0  0  0  0  0  0  0  0  0
    8.1901   -3.4813   -1.1631 C   0  0  0  0  0  0  0  0  0  0  0  0
    9.0034   -2.3610   -0.9417 C   0  0  0  0  0  0  0  0  0  0  0  0
   10.3534   -2.3480   -1.3286 C   0  0  0  0  0  0  0  0  0  0  0  0
   11.1682   -1.2256   -1.1048 C   0  0  0  0  0  0  0  0  0  0  0  0
   12.5190   -1.2120   -1.4911 C   0  0  0  0  0  0  0  0  0  0  0  0
   13.3347   -0.0901   -1.2675 C   0  0  0  0  0  0  0  0  0  0  0  0
   14.6855   -0.0773   -1.6542 C   0  0  0  0  0  0  0  0  0  0  0  0
   15.5009    1.0444   -1.4305 C   0  0  0  0  0  0  0  0  0  0  0  0
   16.8515    1.0581   -1.8167 C   0  0  0  0  0  0  0  0  0  0  0  0
   17.6484    2.1807   -1.5873 C   0  0  0  0  0  0  0  0  0  0  0  0
   17.1058    3.3030   -0.9693 C   0  0  0  0  0  0  0  0  0  0  0  0
   15.7657    3.3047   -0.5798 C   0  0  0  0  0  0  0  0  0  0  0  0
   14.9509    2.1827   -0.8038 C   0  0  0  0  0  0  0  0  0  0  0  0
   13.6005    2.1688   -0.4176 C   0  0  0  0  0  0  0  0  0  0  0  0
   12.7858    1.0462   -0.6419 C   0  0  0  0  0  0  0  0  0  0  0  0
   11.4349    1.0324   -0.2555 C   0  0  0  0  0  0  0  0  0  0  0  0
   10.6194   -0.0895   -0.4793 C   0  0  0  0  0  0  0  0  0  0  0  0
    9.2684   -0.1028   -0.0928 C   0  0  0  0  0  0  0  0  0  0  0  0
    8.4527   -1.2245   -0.3168 C   0  0  0  0  0  0  0  0  0  0  0  0
    7.1001   -1.2385    0.0697 C   0  0  0  0  0  0  0  0  0  0  0  0
    4.3643   -3.3429    1.1192 C   0  0  0  0  0  0  0  0  0  0  0  0
    3.0227   -3.3376    1.5123 C   0  0  0  0  0  0  0  0  0  0  0  0
    2.1453   -2.3432    1.0564 C   0  0  0  0  0  0  0  0  0  0  0  0
    0.7944   -2.3238    1.4417 C   0  0  0  0  0  0  0  0  0  0  0  0
   -0.0844   -1.3278    0.9832 C   0  0  0  0  0  0  0  0  0  0  0  0
   -1.4359   -1.3079    1.3683 C   0  0  0  0  0  0  0  0  0  0  0  0
   -2.3152   -0.3125    0.9096 C   0  0  0  0  0  0  0  0  0  0  0  0
   -3.6685   -0.2918    1.2948 C   0  0  0  0  0  0  0  0  0  0  0  0
   -6.9959    0.6830    0.2936 C   0  0  0  0  0  0  0  0  0  0  0  0
   -8.3516    0.6909    0.6690 C   0  0  0  0  0  0  0  0  0  0  0  0
   -9.3785    0.6665   -0.2896 C   0  0  0  0  0  0  0  0  0  0  0  0
  -10.7326    0.6762    0.0855 C   0  0  0  0  0  0  0  0  0  0  0  0
  -11.7593    0.6525   -0.8735 C   0  0  0  0  0  0  0  0  0  0  0  0
  -13.1136    0.6630   -0.4991 C   0  0  0  0  0  0  0  0  0  0  0  0
  -14.1396    0.6395   -1.4591 C   0  0  0  0  0  0  0  0  0  0  0  0
  -15.4935    0.6503   -1.0849 C   0  0  0  0  0  0  0  0  0  0  0  0
  -16.5197    0.6268   -2.0440 C   0  0  0  0  0  0  0  0  0  0  0  0
  -17.8604    0.6380   -1.6560 C   0  0  0  0  0  0  0  0  0  0  0  0
  -19.2356    0.6814   -0.0008 H   0  0  0  0  0  0  0  0  0  0  0  0
  -17.4635    0.7231    1.7104 H   0  0  0  0  0  0  0  0  0  0  0  0
  -15.0637    0.7355    2.3003 H   0  0  0  0  0  0  0  0  0  0  0  0
  -12.6821    0.7480    2.8840 H   0  0  0  0  0  0  0  0  0  0  0  0
  -10.3010    0.7598    3.4690 H   0  0  0  0  0  0  0  0  0  0  0  0
   -7.9003    0.7731    4.0544 H   0  0  0  0  0  0  0  0  0  0  0  0
   -5.5498    0.7644    3.3703 H   0  0  0  0  0  0  0  0  0  0  0  0
   -4.7018    2.4733   -0.3938 H   0  0  0  0  0  0  0  0  0  0  0  0
   -2.3543    2.4610   -1.0853 H   0  0  0  0  0  0  0  0  0  0  0  0
   -0.1054    1.4407   -1.0112 H   0  0  0  0  0  0  0  0  0  0  0  0
    2.1259    0.4260   -0.9358 H   0  0  0  0  0  0  0  0  0  0  0  0
    4.3575   -0.5935   -0.8688 H   0  0  0  0  0  0  0  0  0  0  0  0
    6.2422   -4.3612   -0.9676 H   0  0  0  0  0  0  0  0  0  0  0  0
    8.5936   -4.3684   -1.6462 H   0  0  0  0  0  0  0  0  0  0  0  0
   10.7771   -3.2267   -1.8115 H   0  0  0  0  0  0  0  0  0  0  0  0
   12.9430   -2.0904   -1.9745 H   0  0  0  0  0  0  0  0  0  0  0  0
   15.1102   -0.9552   -2.1377 H   0  0  0  0  0  0  0  0  0  0  0  0
   17.2938    0.1905   -2.3011 H   0  0  0  0  0  0  0  0  0  0  0  0
   18.6918    2.1774   -1.8914 H   0  0  0  0  0  0  0  0  0  0  0  0
   17.7244    4.1783   -0.7897 H   0  0  0  0  0  0  0  0  0  0  0  0
   15.3598    4.1915   -0.0982 H   0  0  0  0  0  0  0  0  0  0  0  0
   13.1768    3.0472    0.0659 H   0  0  0  0  0  0  0  0  0  0  0  0
   11.0110    1.9107    0.2281 H   0  0  0  0  0  0  0  0  0  0  0  0
    8.8443    0.7752    0.3913 H   0  0  0  0  0  0  0  0  0  0  0  0
    6.6779   -0.3640    0.5629 H   0  0  0  0  0  0  0  0  0  0  0  0
    5.0208   -4.1229    1.5002 H   0  0  0  0  0  0  0  0  0  0  0  0
    2.6702   -4.1190    2.1819 H   0  0  0  0  0  0  0  0  0  0  0  0
    0.4208   -3.0980    2.1095 H   0  0  0  0  0  0  0  0  0  0  0  0
   -1.8105   -2.0812    2.0367 H   0  0  0  0  0  0  0  0  0  0  0  0
   -4.0463   -1.0699    1.9567 H   0  0  0  0  0  0  0  0  0  0  0  0
   -6.7365    0.6478   -0.7636 H   0  0  0  0  0  0  0  0  0  0  0  0
   -9.1189    0.6397   -1.3465 H   0  0  0  0  0  0  0  0  0  0  0  0
  -11.4998    0.6255   -1.9304 H   0  0  0  0  0  0  0  0  0  0  0  0
  -13.8806    0.6124   -2.5159 H   0  0  0  0  0  0  0  0  0  0  0  0
  -16.2805    0.5996   -3.1046 H   0  0  0  0  0  0  0  0  0  0  0  0
  -18.6439    0.6196   -2.4090 H   0  0  0  0  0  0  0  0  0  0  0  0
  1  2  4  0
  2  3  4  0
  3  4  4  0
  4  5  4  0
  5  6  4  0
  6  7  4  0
  7  8  4  0
  8  9  4  0
  9 10  4  0
 10 11  4  0
 11 12  4  0
 12 13  1  0
 13 14  4  0
 14 15  4  0
 15 16  4  0
 16 17  4  0
 17 18  4  0
 18 19  4  0
 19 20  4  0
 20 21  4  0
 21 22  4  0
 22 23  1  0
 23 24  4  0
 24 25  4  0
 25 26  4  0
 26 27  4  0
 27 28  4  0
 28 29  4  0
 29 30  4  0
 30 31  4  0
 31 32  4  0
 32 33  4  0
 33 34  4  0
 34 35  4  0
 35 36  4  0
 36 37  4  0
 37 38  4  0
 38 39  4  0
 39 40  4  0
 40 41  4  0
 41 42  4  0
 42 43  4  0
 43 44  4  0
 22 45  4  0
 45 46  4  0
 46 47  4  0
 47 48  4  0
 48 49  4  0
 49 50  4  0
 50 51  4  0
 51 52  4  0
 12 53  4  0
 53 54  4  0
 54 55  4  0
 55 56  4  0
 56 57  4  0
 57 58  4  0
 58 59  4  0
 59 60  4  0
 60 61  4  0
 61 62  4  0
 62  1  4  0
 60  3  4  0
 58  5  4  0
 56  7  4  0
 54  9  4  0
 52 13  4  0
 51 16  4  0
 49 18  4  0
 47 20  4  0
 44 23  4  0
 43 26  4  0
 41 28  4  0
 39 30  4  0
 37 32  4  0
  1 63  1  0
  2 64  1  0
  4 65  1  0
  6 66  1  0
  8 67  1  0
 10 68  1  0
 11 69  1  0
 14 70  1  0
 15 71  1  0
 17 72  1  0
 19 73  1  0
 21 74  1  0
 24 75  1  0
 25 76  1  0
 27 77  1  0
 29 78  1  0
 31 79  1  0
 33 80  1  0
 34 81  1  0
 35 82  1  0
 36 83  1  0
 38 84  1  0
 40 85  1  0
 42 86  1  0
 44 87  1  0
 45 88  1  0
 46 89  1  0
 48 90  1  0
 50 91  1  0
 52 92  1  0
 53 93  1  0
 55 94  1  0
 57 95  1  0
 59 96  1  0
 61 97  1  0
 62 98  1  0
M  END
