
     RDKit          3D

 98111  0  0  0  0  0  0  0  0999 V2000
  -17.3562    2.2033   -1.8458 C   0  0  0  0  0  0  0  0  0  0  0  0
  -16.6477    3.2475   -2.4319 C   0  0  0  0  0  0  0  0  0  0  0  0
  -15.2522    3.2260   -2.4376 C   0  0  0  0  0  0  0  0  0  0  0  0
  -14.5473    2.1588   -1.8566 C   0  0  0  0  0  0  0  0  0  0  0  0
  -13.1430    2.1221   -1.8539 C   0  0  0  0  0  0  0  0  0  0  0  0
  -12.4389    1.0540   -1.2724 C   0  0  0  0  0  0  0  0  0  0  0  0
  -11.0343    1.0171   -1.2693 C   0  0  0  0  0  0  0  0  0  0  0  0
  -10.3294   -0.0503   -0.6878 C   0  0  0  0  0  0  0  0  0  0  0  0
   -8.9245   -0.0864   -0.6841 C   0  0  0  0  0  0  0  0  0  0  0  0
   -8.2196   -1.1536   -0.1025 C   0  0  0  0  0  0  0  0  0  0  0  0
   -6.8131   -1.1896   -0.0974 C   0  0  0  0  0  0  0  0  0  0  0  0
   -6.1030   -2.2558    0.4805 C   0  0  0  0  0  0  0  0  0  0  0  0
   -4.6319   -2.2748    0.4784 C   0  0  0  0  0  0  0  0  0  0  0  0
   -3.9245   -3.3505   -0.0748 C   0  0  0  0  0  0  0  0  0  0  0  0
   -2.5264   -3.3664   -0.0779 C   0  0  0  0  0  0  0  0  0  0  0  0
   -1.7957   -2.3052    0.4752 C   0  0  0  0  0  0  0  0  0  0  0  0
   -0.3910   -2.3061    0.4803 C   0  0  0  0  0  0  0  0  0  0  0  0
    0.3403   -1.2430    1.0367 C   0  0  0  0  0  0  0  0  0  0  0  0
    1.7458   -1.2430    1.0422 C   0  0  0  0  0  0  0  0  0  0  0  0
    2.4774   -0.1803    1.5984 C   0  0  0  0  0  0  0  0  0  0  0  0
    3.8846   -0.1792    1.6032 C   0  0  0  0  0  0  0  0  0  0  0  0
    4.6213    0.8800    2.1604 C   0  0  0  0  0  0  0  0  0  0  0  0
    6.0927    0.8643    2.1549 C   0  0  0  0  0  0  0  0  0  0  0  0
    6.8097    0.7245    0.9543 C   0  0  0  0  0  0  0  0  0  0  0  0
    8.2167    0.7062    0.9296 C   0  0  0  0  0  0  0  0  0  0  0  0
    8.9283    0.5684   -0.2741 C   0  0  0  0  0  0  0  0  0  0  0  0
   10.3335    0.5492   -0.2985 C   0  0  0  0  0  0  0  0  0  0  0  0
   11.0446    0.4108   -1.5028 C   0  0  0  0  0  0  0  0  0  0  0  0
   12.4495    0.3910   -1.5281 C   0  0  0  0  0  0  0  0  0  0  0  0
   13.1598    0.2524   -2.7329 C   0  0  0  0  0  0  0  0  0  0  0  0
   14.5643    0.2325   -2.7581 C   0  0  0  0  0  0  0  0  0  0  0  0
   15.2751    0.0940   -3.9622 C   0  0  0  0  0  0  0  0  0  0  0  0
   16.6708    0.0761   -3.9702 C   0  0  0  0  0  0  0  0  0  0  0  0
   17.3736    0.1964   -2.7754 C   0  0  0  0  0  0  0  0  0  0  0  0
   16.6817    0.3347   -1.5710 C   0  0  0  0  0  0  0  0  0  0  0  0
   15.2771    0.3545   -1.5465 C   0  0  0  0  0  0  0  0  0  0  0  0
   14.5662    0.4930   -0.3428 C   0  0  0  0  0  0  0  0  0  0  0  0
   13.1611    0.5127   -0.3188 C   0  0  0  0  0  0  0  0  0  0  0  0
   12.4500    0.6513    0.8853 C   0  0  0  0  0  0  0  0  0  0  0  0
   11.0450    0.6712    0.9105 C   0  0  0  0  0  0  0  0  0  0  0  0
   10.3342    0.8104    2.1148 C   0  0  0  0  0  0  0  0  0  0  0  0
    8.9295    0.8300    2.1387 C   0  0  0  0  0  0  0  0  0  0  0  0
    8.2188    0.9704    3.3397 C   0  0  0  0  0  0  0  0  0  0  0  0
    6.8206    0.9877    3.3459 C   0  0  0  0  0  0  0  0  0  0  0  0
    3.9129    1.9515    2.7205 C   0  0  0  0  0  0  0  0  0  0  0  0
    2.5148    1.9673    2.7229 C   0  0  0  0  0  0  0  0  0  0  0  0
    1.7848    0.9081    2.1652 C   0  0  0  0  0  0  0  0  0  0  0  0
    0.3801    0.9088    2.1598 C   0  0  0  0  0  0  0  0  0  0  0  0
   -0.3508   -0.1535    1.6018 C   0  0  0  0  0  0  0  0  0  0  0  0
   -1.7561   -0.1527    1.5957 C   0  0  0  0  0  0  0  0  0  0  0  0
   -2.4879   -1.2147    1.0384 C   0  0  0  0  0  0  0  0  0  0  0  0
   -3.8948   -1.2139    1.0316 C   0  0  0  0  0  0  0  0  0  0  0  0
   -6.8373   -3.2991    1.0600 C   0  0  0  0  0  0  0  0  0  0  0  0
   -8.2352   -3.2784    1.0652 C   0  0  0  0  0  0  0  0  0  0  0  0
   -8.9387   -2.2118    0.4877 C   0  0  0  0  0  0  0  0  0  0  0  0
  -10.3429   -2.1758    0.4850 C   0  0  0  0  0  0  0  0  0  0  0  0
  -11.0469   -1.1074   -0.0955 C   0  0  0  0  0  0  0  0  0  0  0  0
  -12.4514   -1.0707   -0.0985 C   0  0  0  0  0  0  0  0  0  0  0  0
  -13.1562   -0.0030   -0.6793 C   0  0  0  0  0  0  0  0  0  0  0  0
  -14.5609    0.0327   -0.6813 C   0  0  0  0  0  0  0  0  0  0  0  0
  -15.2658    1.0998   -1.2622 C   0  0  0  0  0  0  0  0  0  0  0  0
  -16.6700    1.1359   -1.2645 C   0  0  0  0  0  0  0  0  0  0  0  0
  -18.4428    2.2178   -1.8402 H   0  0  0  0  0  0  0  0  0  0  0  0
  -17.1799    4.0798   -2.8852 H   0  0  0  0  0  0  0  0  0  0  0  0
  -14.7163    4.0516   -2.9006 H   0  0  0  0  0  0  0  0  0  0  0  0
  -12.5892    2.9391   -2.3126 H   0  0  0  0  0  0  0  0  0  0  0  0
  -10.4797    1.8338   -1.7282 H   0  0  0  0  0  0  0  0  0  0  0  0
   -8.3697    0.7306   -1.1421 H   0  0  0  0  0  0  0  0  0  0  0  0
   -6.2578   -0.3764   -0.5628 H   0  0  0  0  0  0  0  0  0  0  0  0
   -4.4607   -4.1854   -0.5220 H   0  0  0  0  0  0  0  0  0  0  0  0
   -2.0133   -4.2174   -0.5202 H   0  0  0  0  0  0  0  0  0  0  0  0
    0.1422   -3.1490    0.0443 H   0  0  0  0  0  0  0  0  0  0  0  0
    2.2798   -2.0856    0.6062 H   0  0  0  0  0  0  0  0  0  0  0  0
    4.4196   -1.0258    1.1748 H   0  0  0  0  0  0  0  0  0  0  0  0
    6.2598    0.6398    0.0180 H   0  0  0  0  0  0  0  0  0  0  0  0
    8.3785    0.4746   -1.2090 H   0  0  0  0  0  0  0  0  0  0  0  0
   10.4943    0.3171   -2.4374 H   0  0  0  0  0  0  0  0  0  0  0  0
   12.6103    0.1584   -3.6679 H   0  0  0  0  0  0  0  0  0  0  0  0
   14.7436   -0.0013   -4.9064 H   0  0  0  0  0  0  0  0  0  0  0  0
   17.2074   -0.0317   -4.9092 H   0  0  0  0  0  0  0  0  0  0  0  0
   18.4604    0.1828   -2.7791 H   0  0  0  0  0  0  0  0  0  0  0  0
   17.2492    0.4275   -0.6477 H   0  0  0  0  0  0  0  0  0  0  0  0
   15.1166    0.5871    0.5916 H   0  0  0  0  0  0  0  0  0  0  0  0
   13.0003    0.7456    1.8199 H   0  0  0  0  0  0  0  0  0  0  0  0
   10.8836    0.9055    3.0497 H   0  0  0  0  0  0  0  0  0  0  0  0
    8.7486    1.0652    4.2851 H   0  0  0  0  0  0  0  0  0  0  0  0
    6.3001    1.0868    4.2966 H   0  0  0  0  0  0  0  0  0  0  0  0
    4.4485    2.7950    3.1519 H   0  0  0  0  0  0  0  0  0  0  0  0
    2.0013    2.8189    3.1637 H   0  0  0  0  0  0  0  0  0  0  0  0
   -0.1537    1.7502    2.5981 H   0  0  0  0  0  0  0  0  0  0  0  0
   -2.2901    0.6892    2.0330 H   0  0  0  0  0  0  0  0  0  0  0  0
   -4.4295   -0.3759    1.4768 H   0  0  0  0  0  0  0  0  0  0  0  0
   -6.3225   -4.1366    1.5268 H   0  0  0  0  0  0  0  0  0  0  0  0
   -8.7697   -4.1046    1.5287 H   0  0  0  0  0  0  0  0  0  0  0  0
  -10.8972   -2.9935    0.9422 H   0  0  0  0  0  0  0  0  0  0  0  0
  -13.0059   -1.8879    0.3595 H   0  0  0  0  0  0  0  0  0  0  0  0
  -15.1157   -0.7840   -0.2230 H   0  0  0  0  0  0  0  0  0  0  0  0
  -17.2413    0.3289   -0.8113 H   0  0  0  0  0  0  0  0  0  0  0  0
  1  2  4  0
  2  3  4  0
  3  4  4  0
  4  5  4  0
  5  6  4  0
  6  7  4  0
  7  8  4  0
  8  9  4  0
  9 10  4  0
 10 11  4  0
 11 12  4  0
 12 13  1  0
 13 14  4  0
 14 15  4  0
 15 16  4  0
 16 17  4  0
 17 18  4  0
 18 19  4  0
 19 20  4  0
 20 21  4  0
 21 22  4  0
 22 23  1  0
 23 24  4  0
 24 25  4  0
 25 26  4  0
 26 27  4  0
 27 28  4  0
 28 29  4  0
 29 30  4  0
 30 31  4  0
 31 32  4  0
 32 33  4  0
 33 34  4  0
 34 35  4  0
 35 36  4  0
 36 37  4  0
 37 38  4  0
 38 39  4  0
 39 40  4  0
 40 41  4  0
 41 42  4  0
 42 43  4  0
 43 44  4  0
 22 45  4  0
 45 46  4  0
 46 47  4  0
 47 48  4  0
 48 49  4  0
 49 50  4  0
 50 51  4  0
 51 52  4  0
 12 53  4  0
 53 54  4  0
 54 55  4  0
 55 56  4  0
 56 57  4  0
 57 58  4  0
 58 59  4  0
 59 60  4  0
 60 61  4  0
 61 62  4  0
 62  1  4  0
 61  4  4  0
 59  6  4  0
 57  8  4  0
 55 10  4  0
 52 13  4  0
 51 16  4  0
 49 18  4  0
 47 20  4  0
 44 23  4  0
 42 25  4  0
 40 27  4  0
 38 29  4  0
 36 31  4  0
  1 63  1  0
  2 64  1  0
  3 65  1  0
  5 66  1  0
  7 67  1  0
  9 68  1  0
 11 69  1  0
 14 70  1  0
 15 71  1  0
 17 72  1  0
 19 73  1  0
 21 74  1  0
 24 75  1  0
 26 76  1  0
 28 77  1  0
 30 78  1  0
 32 79  1  0
 33 80  1  0
 34 81  1  0
 35 82  1  0
 37 83  1  0
 39 84  1  0
 41 85  1  0
 43 86  1  0
 44 87  1  0
 45 88  1  0
 46 89  1  0
 48 90  1  0
 50 91  1  0
 52 92  1  0
 53 93  1  0
 54 94  1  0
 56 95  1  0
 58 96  1  0
 60 97  1  0
 62 98  1  0
M  END
