
     RDKit          3D

 98111  0  0  0  0  0  0  0  0999 V2000
   11.2657    2.7620    3.6313 C   0  0  0  0  0  0  0  0  0  0  0  0
   10.0650    2.6300    4.3217 C   0  0  0  0  0  0  0  0  0  0  0  0
    8.9556    2.0668    3.6892 C   0  0  0  0  0  0  0  0  0  0  0  0
    9.0332    1.6286    2.3567 C   0  0  0  0  0  0  0  0  0  0  0  0
    7.9262    1.0600    1.7050 C   0  0  0  0  0  0  0  0  0  0  0  0
    8.0054    0.6221    0.3715 C   0  0  0  0  0  0  0  0  0  0  0  0
    6.8994    0.0523   -0.2845 C   0  0  0  0  0  0  0  0  0  0  0  0
    6.9516   -0.3973   -1.6290 C   0  0  0  0  0  0  0  0  0  0  0  0
    8.1786   -0.2518   -2.3083 C   0  0  0  0  0  0  0  0  0  0  0  0
    9.2871    0.3170   -1.6556 C   0  0  0  0  0  0  0  0  0  0  0  0
    9.2170    0.7558   -0.3249 C   0  0  0  0  0  0  0  0  0  0  0  0
   10.3269    1.3242    0.3241 C   0  0  0  0  0  0  0  0  0  0  0  0
   10.2506    1.7625    1.6565 C   0  0  0  0  0  0  0  0  0  0  0  0
   11.3586    2.3311    2.3070 C   0  0  0  0  0  0  0  0  0  0  0  0
    8.2925   -0.6751   -3.6385 C   0  0  0  0  0  0  0  0  0  0  0  0
    7.2165   -1.2454   -4.3294 C   0  0  0  0  0  0  0  0  0  0  0  0
    7.3774   -1.6543   -5.6651 C   0  0  0  0  0  0  0  0  0  0  0  0
    6.3233   -2.2240   -6.3761 C   0  0  0  0  0  0  0  0  0  0  0  0
    5.0929   -2.3924   -5.7591 C   0  0  0  0  0  0  0  0  0  0  0  0
    4.9212   -1.9902   -4.4324 C   0  0  0  0  0  0  0  0  0  0  0  0
    5.9726   -1.4071   -3.6802 C   0  0  0  0  0  0  0  0  0  0  0  0
    5.8401   -0.9807   -2.3195 C   0  0  0  0  0  0  0  0  0  0  0  0
    4.5455   -1.1428   -1.6230 C   0  0  0  0  0  0  0  0  0  0  0  0
    4.2632   -2.3093   -0.9012 C   0  0  0  0  0  0  0  0  0  0  0  0
    3.0401   -2.4594   -0.2439 C   0  0  0  0  0  0  0  0  0  0  0  0
    2.0697   -1.4470   -0.2942 C   0  0  0  0  0  0  0  0  0  0  0  0
    0.8347   -1.5836    0.3603 C   0  0  0  0  0  0  0  0  0  0  0  0
   -0.1376   -0.5705    0.3092 C   0  0  0  0  0  0  0  0  0  0  0  0
   -1.3731   -0.7079    0.9638 C   0  0  0  0  0  0  0  0  0  0  0  0
   -2.3469    0.3031    0.9111 C   0  0  0  0  0  0  0  0  0  0  0  0
   -3.5834    0.1643    1.5645 C   0  0  0  0  0  0  0  0  0  0  0  0
   -4.5564    1.1756    1.5096 C   0  0  0  0  0  0  0  0  0  0  0  0
   -5.8536    1.0125    2.2020 C   0  0  0  0  0  0  0  0  0  0  0  0
   -5.9984    1.4610    3.5543 C   0  0  0  0  0  0  0  0  0  0  0  0
   -4.9571    2.0664    4.3025 C   0  0  0  0  0  0  0  0  0  0  0  0
   -5.1406    2.4902    5.6208 C   0  0  0  0  0  0  0  0  0  0  0  0
   -6.3732    2.3218    6.2334 C   0  0  0  0  0  0  0  0  0  0  0  0
   -7.4177    1.7301    5.5265 C   0  0  0  0  0  0  0  0  0  0  0  0
   -7.2447    1.2992    4.1992 C   0  0  0  0  0  0  0  0  0  0  0  0
   -8.3110    0.7068    3.5126 C   0  0  0  0  0  0  0  0  0  0  0  0
   -8.1854    0.2615    2.1909 C   0  0  0  0  0  0  0  0  0  0  0  0
   -9.2852   -0.3289    1.5429 C   0  0  0  0  0  0  0  0  0  0  0  0
   -9.2042   -0.7900    0.2207 C   0  0  0  0  0  0  0  0  0  0  0  0
  -10.3056   -1.3803   -0.4233 C   0  0  0  0  0  0  0  0  0  0  0  0
  -10.2186   -1.8414   -1.7472 C   0  0  0  0  0  0  0  0  0  0  0  0
  -11.3177   -2.4324   -2.3924 C   0  0  0  0  0  0  0  0  0  0  0  0
  -11.2142   -2.8857   -3.7084 C   0  0  0  0  0  0  0  0  0  0  0  0
  -10.0115   -2.7540   -4.3956 C   0  0  0  0  0  0  0  0  0  0  0  0
   -8.9106   -2.1689   -3.7680 C   0  0  0  0  0  0  0  0  0  0  0  0
   -8.9991   -1.7079   -2.4439 C   0  0  0  0  0  0  0  0  0  0  0  0
   -7.9009   -1.1170   -1.7973 C   0  0  0  0  0  0  0  0  0  0  0  0
   -7.9905   -0.6566   -0.4721 C   0  0  0  0  0  0  0  0  0  0  0  0
   -6.8931   -0.0647    0.1791 C   0  0  0  0  0  0  0  0  0  0  0  0
   -6.9560    0.4069    1.5156 C   0  0  0  0  0  0  0  0  0  0  0  0
   -4.2743    2.3409    0.7857 C   0  0  0  0  0  0  0  0  0  0  0  0
   -3.0495    2.4928    0.1317 C   0  0  0  0  0  0  0  0  0  0  0  0
   -2.0775    1.4822    0.1858 C   0  0  0  0  0  0  0  0  0  0  0  0
   -0.8421    1.6195   -0.4676 C   0  0  0  0  0  0  0  0  0  0  0  0
    0.1313    0.6075   -0.4148 C   0  0  0  0  0  0  0  0  0  0  0  0
    1.3670    0.7450   -1.0691 C   0  0  0  0  0  0  0  0  0  0  0  0
    2.3396   -0.2670   -1.0178 C   0  0  0  0  0  0  0  0  0  0  0  0
    3.5752   -0.1288   -1.6726 C   0  0  0  0  0  0  0  0  0  0  0  0
   12.1308    3.2003    4.1219 H   0  0  0  0  0  0  0  0  0  0  0  0
    9.9896    2.9650    5.3528 H   0  0  0  0  0  0  0  0  0  0  0  0
    8.0256    1.9722    4.2454 H   0  0  0  0  0  0  0  0  0  0  0  0
    6.9860    0.9564    2.2442 H   0  0  0  0  0  0  0  0  0  0  0  0
    5.9691   -0.0415    0.2741 H   0  0  0  0  0  0  0  0  0  0  0  0
   10.2271    0.4214   -2.1954 H   0  0  0  0  0  0  0  0  0  0  0  0
   11.2658    1.4276   -0.2168 H   0  0  0  0  0  0  0  0  0  0  0  0
   12.3055    2.4427    1.7836 H   0  0  0  0  0  0  0  0  0  0  0  0
    9.2461   -0.5567   -4.1519 H   0  0  0  0  0  0  0  0  0  0  0  0
    8.3353   -1.5301   -6.1662 H   0  0  0  0  0  0  0  0  0  0  0  0
    6.4653   -2.5340   -7.4077 H   0  0  0  0  0  0  0  0  0  0  0  0
    4.2631   -2.8352   -6.3035 H   0  0  0  0  0  0  0  0  0  0  0  0
    3.9400   -2.1394   -3.9850 H   0  0  0  0  0  0  0  0  0  0  0  0
    5.0001   -3.1086   -0.8488 H   0  0  0  0  0  0  0  0  0  0  0  0
    2.8520   -3.3769    0.3094 H   0  0  0  0  0  0  0  0  0  0  0  0
    0.6255   -2.4948    0.9181 H   0  0  0  0  0  0  0  0  0  0  0  0
   -1.5812   -1.6182    1.5235 H   0  0  0  0  0  0  0  0  0  0  0  0
   -3.8001   -0.7433    2.1264 H   0  0  0  0  0  0  0  0  0  0  0  0
   -3.9744    2.2164    3.8588 H   0  0  0  0  0  0  0  0  0  0  0  0
   -4.3178    2.9497    6.1620 H   0  0  0  0  0  0  0  0  0  0  0  0
   -6.5238    2.6487    7.2585 H   0  0  0  0  0  0  0  0  0  0  0  0
   -8.3775    1.6062    6.0243 H   0  0  0  0  0  0  0  0  0  0  0  0
   -9.2665    0.5886    4.0227 H   0  0  0  0  0  0  0  0  0  0  0  0
  -10.2269   -0.4328    2.0799 H   0  0  0  0  0  0  0  0  0  0  0  0
  -11.2463   -1.4829    0.1147 H   0  0  0  0  0  0  0  0  0  0  0  0
  -12.2659   -2.5439   -1.8713 H   0  0  0  0  0  0  0  0  0  0  0  0
  -12.0726   -3.3412   -4.1953 H   0  0  0  0  0  0  0  0  0  0  0  0
   -9.9283   -3.1063   -5.4204 H   0  0  0  0  0  0  0  0  0  0  0  0
   -7.9788   -2.0748   -4.3213 H   0  0  0  0  0  0  0  0  0  0  0  0
   -6.9594   -1.0137   -2.3342 H   0  0  0  0  0  0  0  0  0  0  0  0
   -5.9612    0.0292   -0.3769 H   0  0  0  0  0  0  0  0  0  0  0  0
   -5.0128    3.1385    0.7289 H   0  0  0  0  0  0  0  0  0  0  0  0
   -2.8619    3.4098   -0.4225 H   0  0  0  0  0  0  0  0  0  0  0  0
   -0.6346    2.5291   -1.0288 H   0  0  0  0  0  0  0  0  0  0  0  0
    1.5755    1.6551   -1.6291 H   0  0  0  0  0  0  0  0  0  0  0  0
    3.7934    0.7798   -2.2323 H   0  0  0  0  0  0  0  0  0  0  0  0
  1  2  4  0
  2  3  4  0
  3  4  4  0
  4  5  4  0
  5  6  4  0
  6  7  4  0
  7  8  4  0
  8  9  4  0
  9 10  4  0
 10 11  4  0
 11 12  4  0
 12 13  4  0
 13 14  4  0
  9 15  4  0
 15 16  4  0
 16 17  4  0
 17 18  4  0
 18 19  4  0
 19 20  4  0
 20 21  4  0
 21 22  4  0
 22 23  1  0
 23 24  4  0
 24 25  4  0
 25 26  4  0
 26 27  4  0
 27 28  4  0
 28 29  4  0
 29 30  4  0
 30 31  4  0
 31 32  4  0
 32 33  1  0
 33 34  4  0
 34 35  4  0
 35 36  4  0
 36 37  4  0
 37 38  4  0
 38 39  4  0
 39 40  4  0
 40 41  4  0
 41 42  4  0
 42 43  4  0
 43 44  4  0
 44 45  4  0
 45 46  4  0
 46 47  4  0
 47 48  4  0
 48 49  4  0
 49 50  4  0
 50 51  4  0
 51 52  4  0
 52 53  4  0
 53 54  4  0
 32 55  4  0
 55 56  4  0
 56 57  4  0
 57 58  4  0
 58 59  4  0
 59 60  4  0
 60 61  4  0
 61 62  4  0
 14  1  4  0
 21 16  4  0
 62 23  4  0
 13  4  4  0
 61 26  4  0
 11  6  4  0
 59 28  4  0
 22  8  4  0
 57 30  4  0
 54 33  4  0
 39 34  4  0
 54 41  4  0
 52 43  4  0
 50 45  4  0
  1 63  1  0
  2 64  1  0
  3 65  1  0
  5 66  1  0
  7 67  1  0
 10 68  1  0
 12 69  1  0
 14 70  1  0
 15 71  1  0
 17 72  1  0
 18 73  1  0
 19 74  1  0
 20 75  1  0
 24 76  1  0
 25 77  1  0
 27 78  1  0
 29 79  1  0
 31 80  1  0
 35 81  1  0
 36 82  1  0
 37 83  1  0
 38 84  1  0
 40 85  1  0
 42 86  1  0
 44 87  1  0
 46 88  1  0
 47 89  1  0
 48 90  1  0
 49 91  1  0
 51 92  1  0
 53 93  1  0
 55 94  1  0
 56 95  1  0
 58 96  1  0
 60 97  1  0
 62 98  1  0
M  END
