
     RDKit          3D

 98111  0  0  0  0  0  0  0  0999 V2000
  -14.0129   -0.7671   -2.7892 C   0  0  0  0  0  0  0  0  0  0  0  0
  -13.6841   -0.0625   -1.6301 C   0  0  0  0  0  0  0  0  0  0  0  0
  -12.3647   -0.0470   -1.1479 C   0  0  0  0  0  0  0  0  0  0  0  0
  -12.0175    0.6575    0.0168 C   0  0  0  0  0  0  0  0  0  0  0  0
  -10.6974    0.6726    0.4984 C   0  0  0  0  0  0  0  0  0  0  0  0
  -10.3498    1.3773    1.6631 C   0  0  0  0  0  0  0  0  0  0  0  0
   -9.0294    1.3929    2.1447 C   0  0  0  0  0  0  0  0  0  0  0  0
   -8.6798    2.0964    3.3077 C   0  0  0  0  0  0  0  0  0  0  0  0
   -7.3609    2.1134    3.7929 C   0  0  0  0  0  0  0  0  0  0  0  0
   -7.0499    2.8286    4.9592 C   0  0  0  0  0  0  0  0  0  0  0  0
   -5.7503    2.8580    5.4559 C   0  0  0  0  0  0  0  0  0  0  0  0
   -4.7421    2.1694    4.7907 C   0  0  0  0  0  0  0  0  0  0  0  0
   -5.0149    1.4404    3.6185 C   0  0  0  0  0  0  0  0  0  0  0  0
   -3.9004    0.7331    2.9683 C   0  0  0  0  0  0  0  0  0  0  0  0
   -3.6260   -0.6044    3.2767 C   0  0  0  0  0  0  0  0  0  0  0  0
   -2.5656   -1.2739    2.6610 C   0  0  0  0  0  0  0  0  0  0  0  0
   -1.7518   -0.6198    1.7234 C   0  0  0  0  0  0  0  0  0  0  0  0
   -0.6816   -1.2789    1.0960 C   0  0  0  0  0  0  0  0  0  0  0  0
    0.1341   -0.6241    0.1576 C   0  0  0  0  0  0  0  0  0  0  0  0
    1.2047   -1.2836   -0.4703 C   0  0  0  0  0  0  0  0  0  0  0  0
    2.0198   -0.6297   -1.4094 C   0  0  0  0  0  0  0  0  0  0  0  0
    3.0902   -1.2900   -2.0383 C   0  0  0  0  0  0  0  0  0  0  0  0
    3.9047   -0.6344   -2.9749 C   0  0  0  0  0  0  0  0  0  0  0  0
    5.0202   -1.3404   -3.6252 C   0  0  0  0  0  0  0  0  0  0  0  0
    6.3492   -1.3072   -3.1101 C   0  0  0  0  0  0  0  0  0  0  0  0
    6.7150   -0.6079   -1.9348 C   0  0  0  0  0  0  0  0  0  0  0  0
    8.0339   -0.5878   -1.4479 C   0  0  0  0  0  0  0  0  0  0  0  0
    8.3756    0.1139   -0.2791 C   0  0  0  0  0  0  0  0  0  0  0  0
    9.6941    0.1348    0.2059 C   0  0  0  0  0  0  0  0  0  0  0  0
   10.0346    0.8370    1.3746 C   0  0  0  0  0  0  0  0  0  0  0  0
   11.3531    0.8585    1.8588 C   0  0  0  0  0  0  0  0  0  0  0  0
   11.6943    1.5604    3.0270 C   0  0  0  0  0  0  0  0  0  0  0  0
   13.0091    1.5722    3.4951 C   0  0  0  0  0  0  0  0  0  0  0  0
   13.9992    0.8831    2.8018 C   0  0  0  0  0  0  0  0  0  0  0  0
   13.6759    0.1810    1.6396 C   0  0  0  0  0  0  0  0  0  0  0  0
   12.3571    0.1594    1.1558 C   0  0  0  0  0  0  0  0  0  0  0  0
   12.0155   -0.5427   -0.0121 C   0  0  0  0  0  0  0  0  0  0  0  0
   10.6959   -0.5635   -0.4955 C   0  0  0  0  0  0  0  0  0  0  0  0
   10.3528   -1.2656   -1.6634 C   0  0  0  0  0  0  0  0  0  0  0  0
    9.0330   -1.2855   -2.1470 C   0  0  0  0  0  0  0  0  0  0  0  0
    8.6869   -1.9865   -3.3128 C   0  0  0  0  0  0  0  0  0  0  0  0
    7.3684   -2.0070   -3.7994 C   0  0  0  0  0  0  0  0  0  0  0  0
    7.0598   -2.7200   -4.9679 C   0  0  0  0  0  0  0  0  0  0  0  0
    5.7604   -2.7518   -5.4655 C   0  0  0  0  0  0  0  0  0  0  0  0
    4.7499   -2.0672   -4.7991 C   0  0  0  0  0  0  0  0  0  0  0  0
    3.6309    0.7036   -3.2821 C   0  0  0  0  0  0  0  0  0  0  0  0
    2.5710    1.3730   -2.6654 C   0  0  0  0  0  0  0  0  0  0  0  0
    1.7578    0.7188   -1.7275 C   0  0  0  0  0  0  0  0  0  0  0  0
    0.6882    1.3780   -1.0991 C   0  0  0  0  0  0  0  0  0  0  0  0
   -0.1271    0.7231   -0.1606 C   0  0  0  0  0  0  0  0  0  0  0  0
   -1.1974    1.3829    0.4672 C   0  0  0  0  0  0  0  0  0  0  0  0
   -2.0138    0.7286    1.4048 C   0  0  0  0  0  0  0  0  0  0  0  0
   -3.0855    1.3884    2.0318 C   0  0  0  0  0  0  0  0  0  0  0  0
   -6.3445    1.4086    3.1046 C   0  0  0  0  0  0  0  0  0  0  0  0
   -6.7139    0.7063    1.9321 C   0  0  0  0  0  0  0  0  0  0  0  0
   -8.0339    0.6886    1.4471 C   0  0  0  0  0  0  0  0  0  0  0  0
   -8.3807   -0.0167    0.2817 C   0  0  0  0  0  0  0  0  0  0  0  0
   -9.7001   -0.0336   -0.2014 C   0  0  0  0  0  0  0  0  0  0  0  0
  -10.0463   -0.7388   -1.3667 C   0  0  0  0  0  0  0  0  0  0  0  0
  -11.3655   -0.7547   -1.8491 C   0  0  0  0  0  0  0  0  0  0  0  0
  -11.7121   -1.4590   -3.0141 C   0  0  0  0  0  0  0  0  0  0  0  0
  -13.0275   -1.4649   -3.4807 C   0  0  0  0  0  0  0  0  0  0  0  0
  -15.0379   -0.7701   -3.1508 H   0  0  0  0  0  0  0  0  0  0  0  0
  -14.4681    0.4771   -1.1034 H   0  0  0  0  0  0  0  0  0  0  0  0
  -12.7882    1.2037    0.5575 H   0  0  0  0  0  0  0  0  0  0  0  0
  -11.1203    1.9235    2.2044 H   0  0  0  0  0  0  0  0  0  0  0  0
   -9.4522    2.6425    3.8471 H   0  0  0  0  0  0  0  0  0  0  0  0
   -7.8251    3.3733    5.4945 H   0  0  0  0  0  0  0  0  0  0  0  0
   -5.5244    3.4160    6.3605 H   0  0  0  0  0  0  0  0  0  0  0  0
   -3.7292    2.1977    5.1890 H   0  0  0  0  0  0  0  0  0  0  0  0
   -4.2425   -1.1340    4.0006 H   0  0  0  0  0  0  0  0  0  0  0  0
   -2.3808   -2.3136    2.9220 H   0  0  0  0  0  0  0  0  0  0  0  0
   -0.4801   -2.3199    1.3427 H   0  0  0  0  0  0  0  0  0  0  0  0
    1.4075   -2.3244   -0.2237 H   0  0  0  0  0  0  0  0  0  0  0  0
    3.3000   -2.3311   -1.7968 H   0  0  0  0  0  0  0  0  0  0  0  0
    5.9525   -0.0627   -1.3800 H   0  0  0  0  0  0  0  0  0  0  0  0
    7.6003    0.6536    0.2623 H   0  0  0  0  0  0  0  0  0  0  0  0
    9.2596    1.3759    1.9169 H   0  0  0  0  0  0  0  0  0  0  0  0
   10.9342    2.1051    3.5828 H   0  0  0  0  0  0  0  0  0  0  0  0
   13.2586    2.1194    4.4004 H   0  0  0  0  0  0  0  0  0  0  0  0
   15.0238    0.8908    3.1643 H   0  0  0  0  0  0  0  0  0  0  0  0
   14.4639   -0.3516    1.1119 H   0  0  0  0  0  0  0  0  0  0  0  0
   12.7902   -1.0822   -0.5538 H   0  0  0  0  0  0  0  0  0  0  0  0
   11.1265   -1.8061   -2.2058 H   0  0  0  0  0  0  0  0  0  0  0  0
    9.4617   -2.5281   -3.8532 H   0  0  0  0  0  0  0  0  0  0  0  0
    7.8369   -3.2610   -5.5042 H   0  0  0  0  0  0  0  0  0  0  0  0
    5.5363   -3.3080   -6.3718 H   0  0  0  0  0  0  0  0  0  0  0  0
    3.7375   -2.0967   -5.1988 H   0  0  0  0  0  0  0  0  0  0  0  0
    4.2479    1.2333   -4.0056 H   0  0  0  0  0  0  0  0  0  0  0  0
    2.3857    2.4128   -2.9257 H   0  0  0  0  0  0  0  0  0  0  0  0
    0.4868    2.4192   -1.3453 H   0  0  0  0  0  0  0  0  0  0  0  0
   -1.3981    2.4244    0.2219 H   0  0  0  0  0  0  0  0  0  0  0  0
   -3.2961    2.4290    1.7888 H   0  0  0  0  0  0  0  0  0  0  0  0
   -5.9538    0.1568    1.3783 H   0  0  0  0  0  0  0  0  0  0  0  0
   -7.6086   -0.5620   -0.2587 H   0  0  0  0  0  0  0  0  0  0  0  0
   -9.2754   -1.2846   -1.9079 H   0  0  0  0  0  0  0  0  0  0  0  0
  -10.9555   -2.0099   -3.5685 H   0  0  0  0  0  0  0  0  0  0  0  0
  -13.2811   -2.0140   -4.3837 H   0  0  0  0  0  0  0  0  0  0  0  0
  1  2  4  0
  2  3  4  0
  3  4  4  0
  4  5  4  0
  5  6  4  0
  6  7  4  0
  7  8  4  0
  8  9  4  0
  9 10  4  0
 10 11  4  0
 11 12  4  0
 12 13  4  0
 13 14  1  0
 14 15  4  0
 15 16  4  0
 16 17  4  0
 17 18  4  0
 18 19  4  0
 19 20  4  0
 20 21  4  0
 21 22  4  0
 22 23  4  0
 23 24  1  0
 24 25  4  0
 25 26  4  0
 26 27  4  0
 27 28  4  0
 28 29  4  0
 29 30  4  0
 30 31  4  0
 31 32  4  0
 32 33  4  0
 33 34  4  0
 34 35  4  0
 35 36  4  0
 36 37  4  0
 37 38  4  0
 38 39  4  0
 39 40  4  0
 40 41  4  0
 41 42  4  0
 42 43  4  0
 43 44  4  0
 44 45  4  0
 23 46  4  0
 46 47  4  0
 47 48  4  0
 48 49  4  0
 49 50  4  0
 50 51  4  0
 51 52  4  0
 52 53  4  0
 13 54  4  0
 54 55  4  0
 55 56  4  0
 56 57  4  0
 57 58  4  0
 58 59  4  0
 59 60  4  0
 60 61  4  0
 61 62  4  0
 62  1  4  0
 60  3  4  0
 58  5  4  0
 56  7  4  0
 54  9  4  0
 53 14  4  0
 52 17  4  0
 50 19  4  0
 48 21  4  0
 45 24  4  0
 42 25  4  0
 40 27  4  0
 38 29  4  0
 36 31  4  0
  1 63  1  0
  2 64  1  0
  4 65  1  0
  6 66  1  0
  8 67  1  0
 10 68  1  0
 11 69  1  0
 12 70  1  0
 15 71  1  0
 16 72  1  0
 18 73  1  0
 20 74  1  0
 22 75  1  0
 26 76  1  0
 28 77  1  0
 30 78  1  0
 32 79  1  0
 33 80  1  0
 34 81  1  0
 35 82  1  0
 37 83  1  0
 39 84  1  0
 41 85  1  0
 43 86  1  0
 44 87  1  0
 45 88  1  0
 46 89  1  0
 47 90  1  0
 49 91  1  0
 51 92  1  0
 53 93  1  0
 55 94  1  0
 57 95  1  0
 59 96  1  0
 61 97  1  0
 62 98  1  0
M  END
