
     RDKit          3D

 98111  0  0  0  0  0  0  0  0999 V2000
   12.8158   -2.8575    2.8980 C   0  0  0  0  0  0  0  0  0  0  0  0
   13.1011   -1.5517    3.2829 C   0  0  0  0  0  0  0  0  0  0  0  0
   12.2304   -0.5177    2.9349 C   0  0  0  0  0  0  0  0  0  0  0  0
   11.0623   -0.7764    2.1967 C   0  0  0  0  0  0  0  0  0  0  0  0
   10.1704    0.2527    1.8358 C   0  0  0  0  0  0  0  0  0  0  0  0
    8.9806    0.0283    1.0908 C   0  0  0  0  0  0  0  0  0  0  0  0
    8.7262   -1.3112    0.7174 C   0  0  0  0  0  0  0  0  0  0  0  0
    9.6109   -2.3449    1.0732 C   0  0  0  0  0  0  0  0  0  0  0  0
   10.7763   -2.0957    1.8086 C   0  0  0  0  0  0  0  0  0  0  0  0
   11.6600   -3.1288    2.1649 C   0  0  0  0  0  0  0  0  0  0  0  0
    7.5826   -1.6177   -0.0140 C   0  0  0  0  0  0  0  0  0  0  0  0
    6.6849   -0.6193   -0.3827 C   0  0  0  0  0  0  0  0  0  0  0  0
    6.8812    0.7343   -0.0407 C   0  0  0  0  0  0  0  0  0  0  0  0
    5.9495    1.7573   -0.4242 C   0  0  0  0  0  0  0  0  0  0  0  0
    4.7405    1.4067   -1.2049 C   0  0  0  0  0  0  0  0  0  0  0  0
    4.7621    1.4314   -2.6052 C   0  0  0  0  0  0  0  0  0  0  0  0
    3.6185    1.1097   -3.3397 C   0  0  0  0  0  0  0  0  0  0  0  0
    2.4260    0.7554   -2.6910 C   0  0  0  0  0  0  0  0  0  0  0  0
    1.2676    0.4315   -3.4159 C   0  0  0  0  0  0  0  0  0  0  0  0
    0.0731    0.0752   -2.7674 C   0  0  0  0  0  0  0  0  0  0  0  0
   -1.0858   -0.2502   -3.4923 C   0  0  0  0  0  0  0  0  0  0  0  0
   -2.2785   -0.6092   -2.8438 C   0  0  0  0  0  0  0  0  0  0  0  0
   -3.4350   -0.9363   -3.5682 C   0  0  0  0  0  0  0  0  0  0  0  0
   -4.6125   -1.2951   -2.9084 C   0  0  0  0  0  0  0  0  0  0  0  0
   -4.6615   -1.3347   -1.5091 C   0  0  0  0  0  0  0  0  0  0  0  0
   -5.9060   -1.7237   -0.8070 C   0  0  0  0  0  0  0  0  0  0  0  0
   -6.8700   -0.7237   -0.4433 C   0  0  0  0  0  0  0  0  0  0  0  0
   -6.6732    0.6418   -0.7336 C   0  0  0  0  0  0  0  0  0  0  0  0
   -7.6018    1.6184   -0.3842 C   0  0  0  0  0  0  0  0  0  0  0  0
   -8.7784    1.2768    0.2754 C   0  0  0  0  0  0  0  0  0  0  0  0
   -9.6936    2.2896    0.6132 C   0  0  0  0  0  0  0  0  0  0  0  0
  -10.8934    2.0058    1.2771 C   0  0  0  0  0  0  0  0  0  0  0  0
  -11.8077    3.0185    1.6147 C   0  0  0  0  0  0  0  0  0  0  0  0
  -12.9977    2.7134    2.2763 C   0  0  0  0  0  0  0  0  0  0  0  0
  -13.2870    1.3939    2.6078 C   0  0  0  0  0  0  0  0  0  0  0  0
  -12.3861    0.3799    2.2775 C   0  0  0  0  0  0  0  0  0  0  0  0
  -11.1832    0.6725    1.6109 C   0  0  0  0  0  0  0  0  0  0  0  0
  -10.2602   -0.3356    1.2684 C   0  0  0  0  0  0  0  0  0  0  0  0
   -9.0353   -0.0761    0.5950 C   0  0  0  0  0  0  0  0  0  0  0  0
   -8.0655   -1.0875    0.2295 C   0  0  0  0  0  0  0  0  0  0  0  0
   -8.2447   -2.4616    0.5133 C   0  0  0  0  0  0  0  0  0  0  0  0
   -7.3161   -3.4560    0.1690 C   0  0  0  0  0  0  0  0  0  0  0  0
   -7.5702   -4.8026    0.4895 C   0  0  0  0  0  0  0  0  0  0  0  0
   -6.6634   -5.8076    0.1594 C   0  0  0  0  0  0  0  0  0  0  0  0
   -5.4878   -5.4787   -0.4971 C   0  0  0  0  0  0  0  0  0  0  0  0
   -5.2260   -4.1458   -0.8203 C   0  0  0  0  0  0  0  0  0  0  0  0
   -6.1299   -3.1002   -0.4977 C   0  0  0  0  0  0  0  0  0  0  0  0
   -3.5048   -1.0053   -0.7838 C   0  0  0  0  0  0  0  0  0  0  0  0
   -2.3136   -0.6431   -1.4343 C   0  0  0  0  0  0  0  0  0  0  0  0
   -1.1560   -0.3158   -0.7102 C   0  0  0  0  0  0  0  0  0  0  0  0
    0.0371    0.0426   -1.3595 C   0  0  0  0  0  0  0  0  0  0  0  0
    1.1952    0.3683   -0.6339 C   0  0  0  0  0  0  0  0  0  0  0  0
    2.3893    0.7242   -1.2815 C   0  0  0  0  0  0  0  0  0  0  0  0
    3.5473    1.0505   -0.5552 C   0  0  0  0  0  0  0  0  0  0  0  0
    6.1730    3.1208   -0.0610 C   0  0  0  0  0  0  0  0  0  0  0  0
    5.2996    4.1874   -0.3974 C   0  0  0  0  0  0  0  0  0  0  0  0
    5.5600    5.5065   -0.0209 C   0  0  0  0  0  0  0  0  0  0  0  0
    6.7037    5.8003    0.7049 C   0  0  0  0  0  0  0  0  0  0  0  0
    7.5801    4.7740    1.0508 C   0  0  0  0  0  0  0  0  0  0  0  0
    7.3267    3.4411    0.6770 C   0  0  0  0  0  0  0  0  0  0  0  0
    8.2239    2.4249    1.0393 C   0  0  0  0  0  0  0  0  0  0  0  0
    8.0433    1.0623    0.7051 C   0  0  0  0  0  0  0  0  0  0  0  0
   13.4911   -3.6653    3.1673 H   0  0  0  0  0  0  0  0  0  0  0  0
   14.0001   -1.3355    3.8539 H   0  0  0  0  0  0  0  0  0  0  0  0
   12.4710    0.4966    3.2454 H   0  0  0  0  0  0  0  0  0  0  0  0
   10.4273    1.2587    2.1550 H   0  0  0  0  0  0  0  0  0  0  0  0
    9.3874   -3.3671    0.7713 H   0  0  0  0  0  0  0  0  0  0  0  0
   11.4516   -4.1553    1.8720 H   0  0  0  0  0  0  0  0  0  0  0  0
    7.3690   -2.6426   -0.3108 H   0  0  0  0  0  0  0  0  0  0  0  0
    5.8110   -0.9289   -0.9537 H   0  0  0  0  0  0  0  0  0  0  0  0
    5.6754    1.7050   -3.1303 H   0  0  0  0  0  0  0  0  0  0  0  0
    3.6684    1.1394   -4.4260 H   0  0  0  0  0  0  0  0  0  0  0  0
    1.2970    0.4570   -4.5038 H   0  0  0  0  0  0  0  0  0  0  0  0
   -1.0590   -0.2251   -4.5802 H   0  0  0  0  0  0  0  0  0  0  0  0
   -3.4292   -0.9167   -4.6558 H   0  0  0  0  0  0  0  0  0  0  0  0
   -5.4968   -1.5468   -3.4908 H   0  0  0  0  0  0  0  0  0  0  0  0
   -5.7740    0.9786   -1.2472 H   0  0  0  0  0  0  0  0  0  0  0  0
   -7.3857    2.6541   -0.6385 H   0  0  0  0  0  0  0  0  0  0  0  0
   -9.4671    3.3228    0.3538 H   0  0  0  0  0  0  0  0  0  0  0  0
  -11.5964    4.0552    1.3627 H   0  0  0  0  0  0  0  0  0  0  0  0
  -13.6963    3.5056    2.5315 H   0  0  0  0  0  0  0  0  0  0  0  0
  -14.2126    1.1516    3.1230 H   0  0  0  0  0  0  0  0  0  0  0  0
  -12.6304   -0.6456    2.5453 H   0  0  0  0  0  0  0  0  0  0  0  0
  -10.5208   -1.3536    1.5436 H   0  0  0  0  0  0  0  0  0  0  0  0
   -9.1444   -2.7899    1.0272 H   0  0  0  0  0  0  0  0  0  0  0  0
   -8.4872   -5.0811    1.0050 H   0  0  0  0  0  0  0  0  0  0  0  0
   -6.8769   -6.8417    0.4151 H   0  0  0  0  0  0  0  0  0  0  0  0
   -4.7711   -6.2520   -0.7606 H   0  0  0  0  0  0  0  0  0  0  0  0
   -4.2918   -3.9288   -1.3356 H   0  0  0  0  0  0  0  0  0  0  0  0
   -3.5406   -1.0363    0.3044 H   0  0  0  0  0  0  0  0  0  0  0  0
   -1.1826   -0.3420    0.3779 H   0  0  0  0  0  0  0  0  0  0  0  0
    1.1664    0.3434    0.4543 H   0  0  0  0  0  0  0  0  0  0  0  0
    3.5281    1.0310    0.5337 H   0  0  0  0  0  0  0  0  0  0  0  0
    4.3908    3.9980   -0.9658 H   0  0  0  0  0  0  0  0  0  0  0  0
    4.8670    6.2966   -0.2972 H   0  0  0  0  0  0  0  0  0  0  0  0
    6.9157    6.8235    1.0024 H   0  0  0  0  0  0  0  0  0  0  0  0
    8.4724    5.0250    1.6210 H   0  0  0  0  0  0  0  0  0  0  0  0
    9.0990    2.7260    1.6092 H   0  0  0  0  0  0  0  0  0  0  0  0
  1  2  4  0
  2  3  4  0
  3  4  4  0
  4  5  4  0
  5  6  4  0
  6  7  4  0
  7  8  4  0
  8  9  4  0
  9 10  4  0
  7 11  4  0
 11 12  4  0
 12 13  4  0
 13 14  4  0
 14 15  1  0
 15 16  4  0
 16 17  4  0
 17 18  4  0
 18 19  4  0
 19 20  4  0
 20 21  4  0
 21 22  4  0
 22 23  4  0
 23 24  4  0
 24 25  4  0
 25 26  1  0
 26 27  4  0
 27 28  4  0
 28 29  4  0
 29 30  4  0
 30 31  4  0
 31 32  4  0
 32 33  4  0
 33 34  4  0
 34 35  4  0
 35 36  4  0
 36 37  4  0
 37 38  4  0
 38 39  4  0
 39 40  4  0
 40 41  4  0
 41 42  4  0
 42 43  4  0
 43 44  4  0
 44 45  4  0
 45 46  4  0
 46 47  4  0
 25 48  4  0
 48 49  4  0
 49 50  4  0
 50 51  4  0
 51 52  4  0
 52 53  4  0
 53 54  4  0
 14 55  4  0
 55 56  4  0
 56 57  4  0
 57 58  4  0
 58 59  4  0
 59 60  4  0
 60 61  4  0
 61 62  4  0
 10  1  4  0
 62 13  4  0
  9  4  4  0
 54 15  4  0
 60 55  4  0
 62  6  4  0
 53 18  4  0
 51 20  4  0
 49 22  4  0
 47 26  4  0
 40 27  4  0
 47 42  4  0
 39 30  4  0
 37 32  4  0
  1 63  1  0
  2 64  1  0
  3 65  1  0
  5 66  1  0
  8 67  1  0
 10 68  1  0
 11 69  1  0
 12 70  1  0
 16 71  1  0
 17 72  1  0
 19 73  1  0
 21 74  1  0
 23 75  1  0
 24 76  1  0
 28 77  1  0
 29 78  1  0
 31 79  1  0
 33 80  1  0
 34 81  1  0
 35 82  1  0
 36 83  1  0
 38 84  1  0
 41 85  1  0
 43 86  1  0
 44 87  1  0
 45 88  1  0
 46 89  1  0
 48 90  1  0
 50 91  1  0
 52 92  1  0
 54 93  1  0
 56 94  1  0
 57 95  1  0
 58 96  1  0
 59 97  1  0
 61 98  1  0
M  END
