
     RDKit          3D

 98111  0  0  0  0  0  0  0  0999 V2000
   11.2096   -5.3500   -0.8886 C   0  0  0  0  0  0  0  0  0  0  0  0
   11.9146   -4.4807   -1.7145 C   0  0  0  0  0  0  0  0  0  0  0  0
   11.4483   -3.1803   -1.9151 C   0  0  0  0  0  0  0  0  0  0  0  0
   10.2700   -2.7321   -1.2925 C   0  0  0  0  0  0  0  0  0  0  0  0
    9.7822   -1.4239   -1.4810 C   0  0  0  0  0  0  0  0  0  0  0  0
    8.5953   -0.9386   -0.8674 C   0  0  0  0  0  0  0  0  0  0  0  0
    7.9057   -1.8500   -0.0378 C   0  0  0  0  0  0  0  0  0  0  0  0
    8.3862   -3.1578    0.1563 C   0  0  0  0  0  0  0  0  0  0  0  0
    9.5594   -3.6119   -0.4594 C   0  0  0  0  0  0  0  0  0  0  0  0
   10.0386   -4.9188   -0.2641 C   0  0  0  0  0  0  0  0  0  0  0  0
    6.7298   -1.4545    0.6012 C   0  0  0  0  0  0  0  0  0  0  0  0
    6.2001   -0.1650    0.4498 C   0  0  0  0  0  0  0  0  0  0  0  0
    4.9502    0.1475    1.1646 C   0  0  0  0  0  0  0  0  0  0  0  0
    4.9779    0.5851    2.4941 C   0  0  0  0  0  0  0  0  0  0  0  0
    3.7916    0.8786    3.1714 C   0  0  0  0  0  0  0  0  0  0  0  0
    2.5487    0.7400    2.5352 C   0  0  0  0  0  0  0  0  0  0  0  0
    1.3478    1.0312    3.2030 C   0  0  0  0  0  0  0  0  0  0  0  0
    0.1028    0.8909    2.5669 C   0  0  0  0  0  0  0  0  0  0  0  0
   -1.0984    1.1798    3.2364 C   0  0  0  0  0  0  0  0  0  0  0  0
   -2.3435    1.0370    2.6022 C   0  0  0  0  0  0  0  0  0  0  0  0
   -3.5428    1.3238    3.2719 C   0  0  0  0  0  0  0  0  0  0  0  0
   -4.7737    1.1740    2.6284 C   0  0  0  0  0  0  0  0  0  0  0  0
   -4.8351    0.7302    1.3020 C   0  0  0  0  0  0  0  0  0  0  0  0
   -6.1320    0.5662    0.6229 C   0  0  0  0  0  0  0  0  0  0  0  0
   -6.6148    1.6487   -0.1260 C   0  0  0  0  0  0  0  0  0  0  0  0
   -7.8329    1.5925   -0.8042 C   0  0  0  0  0  0  0  0  0  0  0  0
   -8.2608    2.7125   -1.5397 C   0  0  0  0  0  0  0  0  0  0  0  0
   -9.4730    2.7154   -2.2412 C   0  0  0  0  0  0  0  0  0  0  0  0
   -9.8984    3.8353   -2.9767 C   0  0  0  0  0  0  0  0  0  0  0  0
  -11.1098    3.8160   -3.6689 C   0  0  0  0  0  0  0  0  0  0  0  0
  -11.9093    2.6784   -3.6337 C   0  0  0  0  0  0  0  0  0  0  0  0
  -11.4969    1.5604   -2.9062 C   0  0  0  0  0  0  0  0  0  0  0  0
  -10.2786    1.5654   -2.2040 C   0  0  0  0  0  0  0  0  0  0  0  0
   -9.8429    0.4481   -1.4642 C   0  0  0  0  0  0  0  0  0  0  0  0
   -8.6173    0.4194   -0.7447 C   0  0  0  0  0  0  0  0  0  0  0  0
   -8.1415   -0.7085    0.0206 C   0  0  0  0  0  0  0  0  0  0  0  0
   -8.8640   -1.9267    0.1374 C   0  0  0  0  0  0  0  0  0  0  0  0
   -8.4070   -3.0318    0.8786 C   0  0  0  0  0  0  0  0  0  0  0  0
   -9.1496   -4.2228    0.9739 C   0  0  0  0  0  0  0  0  0  0  0  0
   -8.6740   -5.3060    1.7151 C   0  0  0  0  0  0  0  0  0  0  0  0
   -7.4505   -5.2126    2.3700 C   0  0  0  0  0  0  0  0  0  0  0  0
   -6.7047   -4.0366    2.2830 C   0  0  0  0  0  0  0  0  0  0  0  0
   -7.1750   -2.9401    1.5399 C   0  0  0  0  0  0  0  0  0  0  0  0
   -6.4433   -1.7487    1.4406 C   0  0  0  0  0  0  0  0  0  0  0  0
   -6.8949   -0.6271    0.7001 C   0  0  0  0  0  0  0  0  0  0  0  0
   -3.6351    0.4479    0.6300 C   0  0  0  0  0  0  0  0  0  0  0  0
   -2.3891    0.5947    1.2641 C   0  0  0  0  0  0  0  0  0  0  0  0
   -1.1878    0.3081    0.5946 C   0  0  0  0  0  0  0  0  0  0  0  0
    0.0579    0.4502    1.2296 C   0  0  0  0  0  0  0  0  0  0  0  0
    1.2596    0.1608    0.5607 C   0  0  0  0  0  0  0  0  0  0  0  0
    2.5045    0.2983    1.1969 C   0  0  0  0  0  0  0  0  0  0  0  0
    3.7063    0.0050    0.5289 C   0  0  0  0  0  0  0  0  0  0  0  0
    6.8720    0.7748   -0.3733 C   0  0  0  0  0  0  0  0  0  0  0  0
    6.3782    2.0922   -0.5499 C   0  0  0  0  0  0  0  0  0  0  0  0
    7.0158    3.0422   -1.3596 C   0  0  0  0  0  0  0  0  0  0  0  0
    6.5035    4.3417   -1.5200 C   0  0  0  0  0  0  0  0  0  0  0  0
    7.1542    5.2700   -2.3331 C   0  0  0  0  0  0  0  0  0  0  0  0
    8.3237    4.9104   -2.9942 C   0  0  0  0  0  0  0  0  0  0  0  0
    8.8412    3.6231   -2.8407 C   0  0  0  0  0  0  0  0  0  0  0  0
    8.1947    2.6784   -2.0241 C   0  0  0  0  0  0  0  0  0  0  0  0
    8.6972    1.3757   -1.8534 C   0  0  0  0  0  0  0  0  0  0  0  0
    8.0702    0.3950   -1.0385 C   0  0  0  0  0  0  0  0  0  0  0  0
   11.5692   -6.3631   -0.7294 H   0  0  0  0  0  0  0  0  0  0  0  0
   12.8270   -4.8125   -2.2029 H   0  0  0  0  0  0  0  0  0  0  0  0
   12.0137   -2.5153   -2.5643 H   0  0  0  0  0  0  0  0  0  0  0  0
   10.3597   -0.7731   -2.1316 H   0  0  0  0  0  0  0  0  0  0  0  0
    7.8345   -3.8395    0.8022 H   0  0  0  0  0  0  0  0  0  0  0  0
    9.5001   -5.6117    0.3786 H   0  0  0  0  0  0  0  0  0  0  0  0
    6.1985   -2.1629    1.2373 H   0  0  0  0  0  0  0  0  0  0  0  0
    5.9291    0.7036    3.0094 H   0  0  0  0  0  0  0  0  0  0  0  0
    3.8482    1.2176    4.2035 H   0  0  0  0  0  0  0  0  0  0  0  0
    1.3829    1.3720    4.2363 H   0  0  0  0  0  0  0  0  0  0  0  0
   -1.0646    1.5198    4.2699 H   0  0  0  0  0  0  0  0  0  0  0  0
   -3.5300    1.6654    4.3045 H   0  0  0  0  0  0  0  0  0  0  0  0
   -5.6902    1.4003    3.1703 H   0  0  0  0  0  0  0  0  0  0  0  0
   -6.0140    2.5572   -0.1732 H   0  0  0  0  0  0  0  0  0  0  0  0
   -7.6354    3.6038   -1.5678 H   0  0  0  0  0  0  0  0  0  0  0  0
   -9.2853    4.7329   -3.0150 H   0  0  0  0  0  0  0  0  0  0  0  0
  -11.4271    4.6884   -4.2342 H   0  0  0  0  0  0  0  0  0  0  0  0
  -12.8535    2.6589   -4.1714 H   0  0  0  0  0  0  0  0  0  0  0  0
  -12.1361    0.6804   -2.8910 H   0  0  0  0  0  0  0  0  0  0  0  0
  -10.4928   -0.4224   -1.4596 H   0  0  0  0  0  0  0  0  0  0  0  0
   -9.8226   -2.0364   -0.3621 H   0  0  0  0  0  0  0  0  0  0  0  0
  -10.1085   -4.3138    0.4688 H   0  0  0  0  0  0  0  0  0  0  0  0
   -9.2591   -6.2196    1.7802 H   0  0  0  0  0  0  0  0  0  0  0  0
   -7.0745   -6.0518    2.9489 H   0  0  0  0  0  0  0  0  0  0  0  0
   -5.7498   -3.9795    2.8011 H   0  0  0  0  0  0  0  0  0  0  0  0
   -5.4874   -1.6988    1.9610 H   0  0  0  0  0  0  0  0  0  0  0  0
   -3.6797    0.1031   -0.4023 H   0  0  0  0  0  0  0  0  0  0  0  0
   -1.2237   -0.0335   -0.4386 H   0  0  0  0  0  0  0  0  0  0  0  0
    1.2253   -0.1782   -0.4734 H   0  0  0  0  0  0  0  0  0  0  0  0
    3.6805   -0.3373   -0.5049 H   0  0  0  0  0  0  0  0  0  0  0  0
    5.4645    2.3955   -0.0402 H   0  0  0  0  0  0  0  0  0  0  0  0
    5.5892    4.6381   -1.0103 H   0  0  0  0  0  0  0  0  0  0  0  0
    6.7465    6.2705   -2.4490 H   0  0  0  0  0  0  0  0  0  0  0  0
    8.8341    5.6294   -3.6293 H   0  0  0  0  0  0  0  0  0  0  0  0
    9.7568    3.3602   -3.3657 H   0  0  0  0  0  0  0  0  0  0  0  0
    9.6139    1.1326   -2.3836 H   0  0  0  0  0  0  0  0  0  0  0  0
  1  2  4  0
  2  3  4  0
  3  4  4  0
  4  5  4  0
  5  6  4  0
  6  7  4  0
  7  8  4  0
  8  9  4  0
  9 10  4  0
  7 11  4  0
 11 12  4  0
 12 13  1  0
 13 14  4  0
 14 15  4  0
 15 16  4  0
 16 17  4  0
 17 18  4  0
 18 19  4  0
 19 20  4  0
 20 21  4  0
 21 22  4  0
 22 23  4  0
 23 24  1  0
 24 25  4  0
 25 26  4  0
 26 27  4  0
 27 28  4  0
 28 29  4  0
 29 30  4  0
 30 31  4  0
 31 32  4  0
 32 33  4  0
 33 34  4  0
 34 35  4  0
 35 36  4  0
 36 37  4  0
 37 38  4  0
 38 39  4  0
 39 40  4  0
 40 41  4  0
 41 42  4  0
 42 43  4  0
 43 44  4  0
 44 45  4  0
 23 46  4  0
 46 47  4  0
 47 48  4  0
 48 49  4  0
 49 50  4  0
 50 51  4  0
 51 52  4  0
 12 53  4  0
 53 54  4  0
 54 55  4  0
 55 56  4  0
 56 57  4  0
 57 58  4  0
 58 59  4  0
 59 60  4  0
 60 61  4  0
 61 62  4  0
 10  1  4  0
 52 13  4  0
 62 53  4  0
  9  4  4  0
 51 16  4  0
 60 55  4  0
 62  6  4  0
 49 18  4  0
 47 20  4  0
 45 24  4  0
 35 26  4  0
 45 36  4  0
 33 28  4  0
 43 38  4  0
  1 63  1  0
  2 64  1  0
  3 65  1  0
  5 66  1  0
  8 67  1  0
 10 68  1  0
 11 69  1  0
 14 70  1  0
 15 71  1  0
 17 72  1  0
 19 73  1  0
 21 74  1  0
 22 75  1  0
 25 76  1  0
 27 77  1  0
 29 78  1  0
 30 79  1  0
 31 80  1  0
 32 81  1  0
 34 82  1  0
 37 83  1  0
 39 84  1  0
 40 85  1  0
 41 86  1  0
 42 87  1  0
 44 88  1  0
 46 89  1  0
 48 90  1  0
 50 91  1  0
 52 92  1  0
 54 93  1  0
 56 94  1  0
 57 95  1  0
 58 96  1  0
 59 97  1  0
 61 98  1  0
M  END
