
     RDKit          3D

 90103  0  0  0  0  0  0  0  0999 V2000
  -14.2198    3.2631    1.7107 C   0  0  0  0  0  0  0  0  0  0  0  0
  -14.0369    1.9505    2.1396 C   0  0  0  0  0  0  0  0  0  0  0  0
  -12.8546    1.2584    1.8375 C   0  0  0  0  0  0  0  0  0  0  0  0
  -11.8368    1.8991    1.0895 C   0  0  0  0  0  0  0  0  0  0  0  0
  -12.0305    3.2294    0.6594 C   0  0  0  0  0  0  0  0  0  0  0  0
  -13.2224    3.8991    0.9750 C   0  0  0  0  0  0  0  0  0  0  0  0
  -11.0248    3.8553   -0.0763 C   0  0  0  0  0  0  0  0  0  0  0  0
   -9.8415    3.1773   -0.3850 C   0  0  0  0  0  0  0  0  0  0  0  0
   -9.6030    1.8442    0.0239 C   0  0  0  0  0  0  0  0  0  0  0  0
  -10.6307    1.2120    0.7732 C   0  0  0  0  0  0  0  0  0  0  0  0
  -10.4679   -0.1176    1.2182 C   0  0  0  0  0  0  0  0  0  0  0  0
   -9.2906   -0.8079    0.9167 C   0  0  0  0  0  0  0  0  0  0  0  0
   -8.2603   -0.2139    0.1798 C   0  0  0  0  0  0  0  0  0  0  0  0
   -7.0933   -0.9522   -0.0988 C   0  0  0  0  0  0  0  0  0  0  0  0
   -6.0259   -0.4121   -0.8289 C   0  0  0  0  0  0  0  0  0  0  0  0
   -4.8159   -1.2007   -1.1087 C   0  0  0  0  0  0  0  0  0  0  0  0
   -4.8964   -2.4414   -1.7552 C   0  0  0  0  0  0  0  0  0  0  0  0
   -3.7457   -3.1888   -2.0240 C   0  0  0  0  0  0  0  0  0  0  0  0
   -2.4795   -2.7154   -1.6510 C   0  0  0  0  0  0  0  0  0  0  0  0
   -1.3136   -3.4538   -1.9131 C   0  0  0  0  0  0  0  0  0  0  0  0
   -0.0457   -2.9788   -1.5374 C   0  0  0  0  0  0  0  0  0  0  0  0
    1.1206   -3.7176   -1.7982 C   0  0  0  0  0  0  0  0  0  0  0  0
    2.3880   -3.2430   -1.4212 C   0  0  0  0  0  0  0  0  0  0  0  0
    3.5525   -3.9807   -1.6784 C   0  0  0  0  0  0  0  0  0  0  0  0
    4.8061   -3.4950   -1.2951 C   0  0  0  0  0  0  0  0  0  0  0  0
    4.9325   -2.2592   -0.6471 C   0  0  0  0  0  0  0  0  0  0  0  0
    6.2507   -1.7475   -0.2445 C   0  0  0  0  0  0  0  0  0  0  0  0
    7.0863   -2.4847    0.5948 C   0  0  0  0  0  0  0  0  0  0  0  0
    8.3394   -1.9896    0.9765 C   0  0  0  0  0  0  0  0  0  0  0  0
    8.8234   -0.7334    0.5370 C   0  0  0  0  0  0  0  0  0  0  0  0
    7.9711    0.0070   -0.3153 C   0  0  0  0  0  0  0  0  0  0  0  0
    6.7124   -0.5016   -0.6896 C   0  0  0  0  0  0  0  0  0  0  0  0
    8.3776    1.2565   -0.7952 C   0  0  0  0  0  0  0  0  0  0  0  0
    9.6165    1.8045   -0.4524 C   0  0  0  0  0  0  0  0  0  0  0  0
    9.9983    3.0589   -0.9477 C   0  0  0  0  0  0  0  0  0  0  0  0
   11.2317    3.6158   -0.6122 C   0  0  0  0  0  0  0  0  0  0  0  0
   12.1142    2.9304    0.2276 C   0  0  0  0  0  0  0  0  0  0  0  0
   11.7434    1.6618    0.7360 C   0  0  0  0  0  0  0  0  0  0  0  0
   12.6355    0.9704    1.5835 C   0  0  0  0  0  0  0  0  0  0  0  0
   13.8731    1.5437    1.9118 C   0  0  0  0  0  0  0  0  0  0  0  0
   14.2318    2.7921    1.4087 C   0  0  0  0  0  0  0  0  0  0  0  0
   13.3574    3.4813    0.5715 C   0  0  0  0  0  0  0  0  0  0  0  0
   12.2651   -0.2785    2.0808 C   0  0  0  0  0  0  0  0  0  0  0  0
   11.0290   -0.8396    1.7464 C   0  0  0  0  0  0  0  0  0  0  0  0
   10.1031   -0.1842    0.9012 C   0  0  0  0  0  0  0  0  0  0  0  0
   10.4857    1.0875    0.3978 C   0  0  0  0  0  0  0  0  0  0  0  0
    3.7630   -1.5232   -0.3924 C   0  0  0  0  0  0  0  0  0  0  0  0
    2.4933   -1.9983   -0.7690 C   0  0  0  0  0  0  0  0  0  0  0  0
    1.3264   -1.2605   -0.5080 C   0  0  0  0  0  0  0  0  0  0  0  0
    0.0584   -1.7353   -0.8841 C   0  0  0  0  0  0  0  0  0  0  0  0
   -1.1082   -0.9969   -0.6224 C   0  0  0  0  0  0  0  0  0  0  0  0
   -2.3763   -1.4708   -0.9985 C   0  0  0  0  0  0  0  0  0  0  0  0
   -3.5444   -0.7311   -0.7373 C   0  0  0  0  0  0  0  0  0  0  0  0
   -6.1530    0.9016   -1.2816 C   0  0  0  0  0  0  0  0  0  0  0  0
   -7.3086    1.6463   -1.0133 C   0  0  0  0  0  0  0  0  0  0  0  0
   -8.3969    1.1179   -0.2770 C   0  0  0  0  0  0  0  0  0  0  0  0
  -11.4844   -0.7376    1.9580 C   0  0  0  0  0  0  0  0  0  0  0  0
  -12.6634   -0.0588    2.2642 C   0  0  0  0  0  0  0  0  0  0  0  0
  -15.1395    3.7905    1.9499 H   0  0  0  0  0  0  0  0  0  0  0  0
  -14.8266    1.4702    2.7133 H   0  0  0  0  0  0  0  0  0  0  0  0
  -13.3822    4.9242    0.6483 H   0  0  0  0  0  0  0  0  0  0  0  0
  -11.1474    4.8799   -0.4204 H   0  0  0  0  0  0  0  0  0  0  0  0
   -9.1014    3.7253   -0.9611 H   0  0  0  0  0  0  0  0  0  0  0  0
   -9.1737   -1.8334    1.2647 H   0  0  0  0  0  0  0  0  0  0  0  0
   -7.0070   -1.9729    0.2732 H   0  0  0  0  0  0  0  0  0  0  0  0
   -5.8627   -2.8324   -2.0684 H   0  0  0  0  0  0  0  0  0  0  0  0
   -3.8492   -4.1453   -2.5316 H   0  0  0  0  0  0  0  0  0  0  0  0
   -1.3944   -4.4151   -2.4176 H   0  0  0  0  0  0  0  0  0  0  0  0
    1.0406   -4.6790   -2.3025 H   0  0  0  0  0  0  0  0  0  0  0  0
    3.4953   -4.9427   -2.1828 H   0  0  0  0  0  0  0  0  0  0  0  0
    5.6913   -4.0876   -1.5185 H   0  0  0  0  0  0  0  0  0  0  0  0
    6.7665   -3.4531    0.9743 H   0  0  0  0  0  0  0  0  0  0  0  0
    8.9322   -2.6174    1.6354 H   0  0  0  0  0  0  0  0  0  0  0  0
    6.0778    0.0821   -1.3559 H   0  0  0  0  0  0  0  0  0  0  0  0
    7.7140    1.8169   -1.4523 H   0  0  0  0  0  0  0  0  0  0  0  0
    9.3349    3.6183   -1.6040 H   0  0  0  0  0  0  0  0  0  0  0  0
   11.4956    4.5911   -1.0145 H   0  0  0  0  0  0  0  0  0  0  0  0
   14.5682    1.0197    2.5640 H   0  0  0  0  0  0  0  0  0  0  0  0
   15.1928    3.2277    1.6689 H   0  0  0  0  0  0  0  0  0  0  0  0
   13.6542    4.4549    0.1879 H   0  0  0  0  0  0  0  0  0  0  0  0
   12.9329   -0.8336    2.7358 H   0  0  0  0  0  0  0  0  0  0  0  0
   10.8058   -1.8149    2.1694 H   0  0  0  0  0  0  0  0  0  0  0  0
    3.8434   -0.5660    0.1213 H   0  0  0  0  0  0  0  0  0  0  0  0
    1.4070   -0.2999   -0.0021 H   0  0  0  0  0  0  0  0  0  0  0  0
   -1.0280   -0.0363   -0.1165 H   0  0  0  0  0  0  0  0  0  0  0  0
   -3.4649    0.2260   -0.2234 H   0  0  0  0  0  0  0  0  0  0  0  0
   -5.3556    1.3608   -1.8628 H   0  0  0  0  0  0  0  0  0  0  0  0
   -7.3368    2.6603   -1.4016 H   0  0  0  0  0  0  0  0  0  0  0  0
  -11.3677   -1.7620    2.3056 H   0  0  0  0  0  0  0  0  0  0  0  0
  -13.4309   -0.5709    2.8399 H   0  0  0  0  0  0  0  0  0  0  0  0
  1  2  4  0
  2  3  4  0
  3  4  4  0
  4  5  4  0
  5  6  4  0
  5  7  4  0
  7  8  4  0
  8  9  4  0
  9 10  4  0
 10 11  4  0
 11 12  4  0
 12 13  4  0
 13 14  4  0
 14 15  4  0
 15 16  1  0
 16 17  4  0
 17 18  4  0
 18 19  4  0
 19 20  4  0
 20 21  4  0
 21 22  4  0
 22 23  4  0
 23 24  4  0
 24 25  4  0
 25 26  4  0
 26 27  1  0
 27 28  4  0
 28 29  4  0
 29 30  4  0
 30 31  4  0
 31 32  4  0
 31 33  4  0
 33 34  4  0
 34 35  4  0
 35 36  4  0
 36 37  4  0
 37 38  4  0
 38 39  4  0
 39 40  4  0
 40 41  4  0
 41 42  4  0
 39 43  4  0
 43 44  4  0
 44 45  4  0
 45 46  4  0
 26 47  4  0
 47 48  4  0
 48 49  4  0
 49 50  4  0
 50 51  4  0
 51 52  4  0
 52 53  4  0
 15 54  4  0
 54 55  4  0
 55 56  4  0
 11 57  4  0
 57 58  4  0
  6  1  4  0
 56  9  4  0
 58  3  4  0
 10  4  4  0
 56 13  4  0
 53 16  4  0
 52 19  4  0
 50 21  4  0
 48 23  4  0
 32 27  4  0
 46 34  4  0
 45 30  4  0
 42 37  4  0
 46 38  4  0
  1 59  1  0
  2 60  1  0
  6 61  1  0
  7 62  1  0
  8 63  1  0
 12 64  1  0
 14 65  1  0
 17 66  1  0
 18 67  1  0
 20 68  1  0
 22 69  1  0
 24 70  1  0
 25 71  1  0
 28 72  1  0
 29 73  1  0
 32 74  1  0
 33 75  1  0
 35 76  1  0
 36 77  1  0
 40 78  1  0
 41 79  1  0
 42 80  1  0
 43 81  1  0
 44 82  1  0
 47 83  1  0
 49 84  1  0
 51 85  1  0
 53 86  1  0
 54 87  1  0
 55 88  1  0
 57 89  1  0
 58 90  1  0
M  END
