
     RDKit          3D

 90103  0  0  0  0  0  0  0  0999 V2000
   12.9287   -0.5042   -3.6533 C   0  0  0  0  0  0  0  0  0  0  0  0
   13.2352    0.7186   -3.0786 C   0  0  0  0  0  0  0  0  0  0  0  0
   12.3651    1.2852   -2.1421 C   0  0  0  0  0  0  0  0  0  0  0  0
   11.1577    0.6524   -1.7452 C   0  0  0  0  0  0  0  0  0  0  0  0
   10.8714   -0.5953   -2.3493 C   0  0  0  0  0  0  0  0  0  0  0  0
   11.7538   -1.1560   -3.2899 C   0  0  0  0  0  0  0  0  0  0  0  0
    9.7014   -1.2815   -2.0114 C   0  0  0  0  0  0  0  0  0  0  0  0
    8.7930   -0.7658   -1.0828 C   0  0  0  0  0  0  0  0  0  0  0  0
    7.6329   -1.4776   -0.7675 C   0  0  0  0  0  0  0  0  0  0  0  0
    6.7170   -0.9761    0.1563 C   0  0  0  0  0  0  0  0  0  0  0  0
    6.9223    0.2577    0.8024 C   0  0  0  0  0  0  0  0  0  0  0  0
    8.1039    0.9818    0.4835 C   0  0  0  0  0  0  0  0  0  0  0  0
    8.3506    2.2230    1.1113 C   0  0  0  0  0  0  0  0  0  0  0  0
    7.4394    2.7347    2.0397 C   0  0  0  0  0  0  0  0  0  0  0  0
    6.2819    2.0295    2.3537 C   0  0  0  0  0  0  0  0  0  0  0  0
    6.0036    0.7944    1.7487 C   0  0  0  0  0  0  0  0  0  0  0  0
    4.7575    0.1070    2.1240 C   0  0  0  0  0  0  0  0  0  0  0  0
    4.7092   -0.7213    3.2514 C   0  0  0  0  0  0  0  0  0  0  0  0
    3.5246   -1.3710    3.6072 C   0  0  0  0  0  0  0  0  0  0  0  0
    2.3589   -1.2061    2.8437 C   0  0  0  0  0  0  0  0  0  0  0  0
    1.1607   -1.8537    3.1866 C   0  0  0  0  0  0  0  0  0  0  0  0
   -0.0059   -1.6902    2.4205 C   0  0  0  0  0  0  0  0  0  0  0  0
   -1.2041   -2.3400    2.7620 C   0  0  0  0  0  0  0  0  0  0  0  0
   -2.3695   -2.1788    1.9947 C   0  0  0  0  0  0  0  0  0  0  0  0
   -3.5652   -2.8300    2.3341 C   0  0  0  0  0  0  0  0  0  0  0  0
   -4.7154   -2.6612    1.5591 C   0  0  0  0  0  0  0  0  0  0  0  0
   -4.6991   -1.8358    0.4285 C   0  0  0  0  0  0  0  0  0  0  0  0
   -5.9074   -1.6646   -0.3944 C   0  0  0  0  0  0  0  0  0  0  0  0
   -6.0775   -2.5149   -1.4978 C   0  0  0  0  0  0  0  0  0  0  0  0
   -7.1980   -2.4102   -2.3158 C   0  0  0  0  0  0  0  0  0  0  0  0
   -8.1798   -1.4511   -2.0518 C   0  0  0  0  0  0  0  0  0  0  0  0
   -9.3015   -1.3498   -2.8726 C   0  0  0  0  0  0  0  0  0  0  0  0
  -10.2873   -0.3948   -2.6165 C   0  0  0  0  0  0  0  0  0  0  0  0
  -10.2024    0.5044   -1.5309 C   0  0  0  0  0  0  0  0  0  0  0  0
   -9.0552    0.3964   -0.6970 C   0  0  0  0  0  0  0  0  0  0  0  0
   -8.9089    1.2651    0.4045 C   0  0  0  0  0  0  0  0  0  0  0  0
   -9.8886    2.2251    0.6725 C   0  0  0  0  0  0  0  0  0  0  0  0
  -11.0257    2.3534   -0.1299 C   0  0  0  0  0  0  0  0  0  0  0  0
  -11.9831    3.3353    0.1811 C   0  0  0  0  0  0  0  0  0  0  0  0
  -13.1285    3.4954   -0.5933 C   0  0  0  0  0  0  0  0  0  0  0  0
  -13.3297    2.6730   -1.6900 C   0  0  0  0  0  0  0  0  0  0  0  0
  -12.3844    1.6932   -2.0081 C   0  0  0  0  0  0  0  0  0  0  0  0
  -11.2041    1.4985   -1.2439 C   0  0  0  0  0  0  0  0  0  0  0  0
   -7.7833    1.1643    1.2259 C   0  0  0  0  0  0  0  0  0  0  0  0
   -6.7976    0.2116    0.9718 C   0  0  0  0  0  0  0  0  0  0  0  0
   -6.8972   -0.6807   -0.1126 C   0  0  0  0  0  0  0  0  0  0  0  0
   -8.0416   -0.5773   -0.9503 C   0  0  0  0  0  0  0  0  0  0  0  0
   -3.5029   -1.1848    0.0882 C   0  0  0  0  0  0  0  0  0  0  0  0
   -2.3372   -1.3455    0.8576 C   0  0  0  0  0  0  0  0  0  0  0  0
   -1.1396   -0.6949    0.5176 C   0  0  0  0  0  0  0  0  0  0  0  0
    0.0266   -0.8576    1.2845 C   0  0  0  0  0  0  0  0  0  0  0  0
    1.2248   -0.2087    0.9420 C   0  0  0  0  0  0  0  0  0  0  0  0
    2.3915   -0.3725    1.7068 C   0  0  0  0  0  0  0  0  0  0  0  0
    3.5902    0.2755    1.3624 C   0  0  0  0  0  0  0  0  0  0  0  0
    9.5084    2.9329    0.7981 C   0  0  0  0  0  0  0  0  0  0  0  0
   10.4239    2.4295   -0.1282 C   0  0  0  0  0  0  0  0  0  0  0  0
   10.2300    1.1950   -0.7861 C   0  0  0  0  0  0  0  0  0  0  0  0
    9.0469    0.4750   -0.4619 C   0  0  0  0  0  0  0  0  0  0  0  0
   13.5991   -0.9515   -4.3820 H   0  0  0  0  0  0  0  0  0  0  0  0
   14.1495    1.2377   -3.3541 H   0  0  0  0  0  0  0  0  0  0  0  0
   12.6551    2.2447   -1.7240 H   0  0  0  0  0  0  0  0  0  0  0  0
   11.5291   -2.1156   -3.7516 H   0  0  0  0  0  0  0  0  0  0  0  0
    9.4918   -2.2407   -2.4827 H   0  0  0  0  0  0  0  0  0  0  0  0
    7.4250   -2.4364   -1.2380 H   0  0  0  0  0  0  0  0  0  0  0  0
    5.8308   -1.5725    0.3659 H   0  0  0  0  0  0  0  0  0  0  0  0
    7.6205    3.6895    2.5282 H   0  0  0  0  0  0  0  0  0  0  0  0
    5.5862    2.4501    3.0777 H   0  0  0  0  0  0  0  0  0  0  0  0
    5.6006   -0.8678    3.8584 H   0  0  0  0  0  0  0  0  0  0  0  0
    3.5216   -2.0095    4.4879 H   0  0  0  0  0  0  0  0  0  0  0  0
    1.1363   -2.4971    4.0644 H   0  0  0  0  0  0  0  0  0  0  0  0
   -1.2297   -2.9837    3.6394 H   0  0  0  0  0  0  0  0  0  0  0  0
   -3.6125   -3.4777    3.2068 H   0  0  0  0  0  0  0  0  0  0  0  0
   -5.6305   -3.1774    1.8429 H   0  0  0  0  0  0  0  0  0  0  0  0
   -5.3277   -3.2713   -1.7227 H   0  0  0  0  0  0  0  0  0  0  0  0
   -7.2957   -3.0873   -3.1614 H   0  0  0  0  0  0  0  0  0  0  0  0
   -9.4262   -2.0136   -3.7255 H   0  0  0  0  0  0  0  0  0  0  0  0
  -11.1335   -0.3730   -3.2970 H   0  0  0  0  0  0  0  0  0  0  0  0
   -9.7623    2.8887    1.5268 H   0  0  0  0  0  0  0  0  0  0  0  0
  -11.8416    3.9897    1.0391 H   0  0  0  0  0  0  0  0  0  0  0  0
  -13.8580    4.2591   -0.3389 H   0  0  0  0  0  0  0  0  0  0  0  0
  -14.2199    2.7875   -2.3028 H   0  0  0  0  0  0  0  0  0  0  0  0
  -12.5932    1.0771   -2.8778 H   0  0  0  0  0  0  0  0  0  0  0  0
   -7.6572    1.8288    2.0783 H   0  0  0  0  0  0  0  0  0  0  0  0
   -5.9407    0.1780    1.6420 H   0  0  0  0  0  0  0  0  0  0  0  0
   -3.4863   -0.5417   -0.7907 H   0  0  0  0  0  0  0  0  0  0  0  0
   -1.1146   -0.0517   -0.3605 H   0  0  0  0  0  0  0  0  0  0  0  0
    1.2508    0.4341    0.0636 H   0  0  0  0  0  0  0  0  0  0  0  0
    3.6233    0.9209    0.4856 H   0  0  0  0  0  0  0  0  0  0  0  0
    9.7164    3.8905    1.2708 H   0  0  0  0  0  0  0  0  0  0  0  0
   11.3034    3.0360   -0.3236 H   0  0  0  0  0  0  0  0  0  0  0  0
  1  2  4  0
  2  3  4  0
  3  4  4  0
  4  5  4  0
  5  6  4  0
  5  7  4  0
  7  8  4  0
  8  9  4  0
  9 10  4  0
 10 11  4  0
 11 12  4  0
 12 13  4  0
 13 14  4  0
 14 15  4  0
 15 16  4  0
 16 17  1  0
 17 18  4  0
 18 19  4  0
 19 20  4  0
 20 21  4  0
 21 22  4  0
 22 23  4  0
 23 24  4  0
 24 25  4  0
 25 26  4  0
 26 27  4  0
 27 28  1  0
 28 29  4  0
 29 30  4  0
 30 31  4  0
 31 32  4  0
 32 33  4  0
 33 34  4  0
 34 35  4  0
 35 36  4  0
 36 37  4  0
 37 38  4  0
 38 39  4  0
 39 40  4  0
 40 41  4  0
 41 42  4  0
 42 43  4  0
 36 44  4  0
 44 45  4  0
 45 46  4  0
 46 47  4  0
 27 48  4  0
 48 49  4  0
 49 50  4  0
 50 51  4  0
 51 52  4  0
 52 53  4  0
 53 54  4  0
 13 55  4  0
 55 56  4  0
 56 57  4  0
 57 58  4  0
  6  1  4  0
 58  8  4  0
 57  4  4  0
 16 11  4  0
 54 17  4  0
 58 12  4  0
 53 20  4  0
 51 22  4  0
 49 24  4  0
 46 28  4  0
 47 31  4  0
 43 34  4  0
 47 35  4  0
 43 38  4  0
  1 59  1  0
  2 60  1  0
  3 61  1  0
  6 62  1  0
  7 63  1  0
  9 64  1  0
 10 65  1  0
 14 66  1  0
 15 67  1  0
 18 68  1  0
 19 69  1  0
 21 70  1  0
 23 71  1  0
 25 72  1  0
 26 73  1  0
 29 74  1  0
 30 75  1  0
 32 76  1  0
 33 77  1  0
 37 78  1  0
 39 79  1  0
 40 80  1  0
 41 81  1  0
 42 82  1  0
 44 83  1  0
 45 84  1  0
 48 85  1  0
 50 86  1  0
 52 87  1  0
 54 88  1  0
 55 89  1  0
 56 90  1  0
M  END
