
     RDKit          3D

 90103  0  0  0  0  0  0  0  0999 V2000
  -11.9685   -4.0091    0.6939 C   0  0  0  0  0  0  0  0  0  0  0  0
  -10.9348   -3.8136    1.5955 C   0  0  0  0  0  0  0  0  0  0  0  0
   -9.9185   -2.8995    1.3020 C   0  0  0  0  0  0  0  0  0  0  0  0
   -9.8974   -2.1479    0.0983 C   0  0  0  0  0  0  0  0  0  0  0  0
  -10.9656   -2.3690   -0.8037 C   0  0  0  0  0  0  0  0  0  0  0  0
  -11.9826   -3.2907   -0.4981 C   0  0  0  0  0  0  0  0  0  0  0  0
  -11.0147   -1.6672   -2.0115 C   0  0  0  0  0  0  0  0  0  0  0  0
  -10.0277   -0.7414   -2.3600 C   0  0  0  0  0  0  0  0  0  0  0  0
  -10.1086   -0.0571   -3.5780 C   0  0  0  0  0  0  0  0  0  0  0  0
   -9.1343    0.8689   -3.9410 C   0  0  0  0  0  0  0  0  0  0  0  0
   -8.0551    1.1325   -3.0939 C   0  0  0  0  0  0  0  0  0  0  0  0
   -7.9491    0.4525   -1.8548 C   0  0  0  0  0  0  0  0  0  0  0  0
   -8.9481   -0.4971   -1.4814 C   0  0  0  0  0  0  0  0  0  0  0  0
   -8.8743   -1.1959   -0.2482 C   0  0  0  0  0  0  0  0  0  0  0  0
   -7.7719   -0.9021    0.5795 C   0  0  0  0  0  0  0  0  0  0  0  0
   -6.7923    0.0271    0.2168 C   0  0  0  0  0  0  0  0  0  0  0  0
   -6.8514    0.7240   -1.0008 C   0  0  0  0  0  0  0  0  0  0  0  0
   -5.8679    1.6744   -1.3970 C   0  0  0  0  0  0  0  0  0  0  0  0
   -4.6999    2.0003   -0.5631 C   0  0  0  0  0  0  0  0  0  0  0  0
   -4.7373    3.0775    0.3299 C   0  0  0  0  0  0  0  0  0  0  0  0
   -3.6284    3.3832    1.1229 C   0  0  0  0  0  0  0  0  0  0  0  0
   -2.4544    2.6189    1.0403 C   0  0  0  0  0  0  0  0  0  0  0  0
   -1.3320    2.9114    1.8327 C   0  0  0  0  0  0  0  0  0  0  0  0
   -0.1566    2.1453    1.7503 C   0  0  0  0  0  0  0  0  0  0  0  0
    0.9663    2.4369    2.5437 C   0  0  0  0  0  0  0  0  0  0  0  0
    2.1401    1.6693    2.4632 C   0  0  0  0  0  0  0  0  0  0  0  0
    3.2600    1.9583    3.2579 C   0  0  0  0  0  0  0  0  0  0  0  0
    4.4192    1.1834    3.1678 C   0  0  0  0  0  0  0  0  0  0  0  0
    4.4877    0.1030    2.2802 C   0  0  0  0  0  0  0  0  0  0  0  0
    5.7033   -0.7221    2.1929 C   0  0  0  0  0  0  0  0  0  0  0  0
    6.7892   -0.4038    1.3286 C   0  0  0  0  0  0  0  0  0  0  0  0
    6.7903    0.7189    0.4853 C   0  0  0  0  0  0  0  0  0  0  0  0
    7.8719    1.0073   -0.3528 C   0  0  0  0  0  0  0  0  0  0  0  0
    9.0224    0.1943   -0.4046 C   0  0  0  0  0  0  0  0  0  0  0  0
    9.0344   -0.9452    0.4416 C   0  0  0  0  0  0  0  0  0  0  0  0
   10.1559   -1.8051    0.4404 C   0  0  0  0  0  0  0  0  0  0  0  0
   11.2449   -1.5304   -0.3913 C   0  0  0  0  0  0  0  0  0  0  0  0
   11.2588   -0.4152   -1.2336 C   0  0  0  0  0  0  0  0  0  0  0  0
   12.3784   -0.1815   -2.0517 C   0  0  0  0  0  0  0  0  0  0  0  0
   12.4309    0.9175   -2.9039 C   0  0  0  0  0  0  0  0  0  0  0  0
   11.3614    1.7973   -2.9477 C   0  0  0  0  0  0  0  0  0  0  0  0
   10.2432    1.5747   -2.1385 C   0  0  0  0  0  0  0  0  0  0  0  0
   10.1514    0.4661   -1.2567 C   0  0  0  0  0  0  0  0  0  0  0  0
   10.1767   -2.9311    1.2710 C   0  0  0  0  0  0  0  0  0  0  0  0
    9.1007   -3.2208    2.1056 C   0  0  0  0  0  0  0  0  0  0  0  0
    7.9775   -2.3902    2.1296 C   0  0  0  0  0  0  0  0  0  0  0  0
    7.9312   -1.2425    1.2986 C   0  0  0  0  0  0  0  0  0  0  0  0
    6.9021   -2.6895    2.9705 C   0  0  0  0  0  0  0  0  0  0  0  0
    5.7808   -1.8664    3.0014 C   0  0  0  0  0  0  0  0  0  0  0  0
    3.3673   -0.1867    1.4856 C   0  0  0  0  0  0  0  0  0  0  0  0
    2.1938    0.5835    1.5654 C   0  0  0  0  0  0  0  0  0  0  0  0
    1.0719    0.2937    0.7712 C   0  0  0  0  0  0  0  0  0  0  0  0
   -0.1030    1.0603    0.8534 C   0  0  0  0  0  0  0  0  0  0  0  0
   -1.2259    0.7674    0.0609 C   0  0  0  0  0  0  0  0  0  0  0  0
   -2.4007    1.5329    0.1427 C   0  0  0  0  0  0  0  0  0  0  0  0
   -3.5239    1.2384   -0.6496 C   0  0  0  0  0  0  0  0  0  0  0  0
   -6.0035    2.3310   -2.6294 C   0  0  0  0  0  0  0  0  0  0  0  0
   -7.0821    2.0639   -3.4669 C   0  0  0  0  0  0  0  0  0  0  0  0
  -12.7620   -4.7175    0.9142 H   0  0  0  0  0  0  0  0  0  0  0  0
  -10.9119   -4.3686    2.5295 H   0  0  0  0  0  0  0  0  0  0  0  0
   -9.1329   -2.7862    2.0436 H   0  0  0  0  0  0  0  0  0  0  0  0
  -12.8020   -3.4575   -1.1946 H   0  0  0  0  0  0  0  0  0  0  0  0
  -11.8414   -1.8461   -2.6975 H   0  0  0  0  0  0  0  0  0  0  0  0
  -10.9357   -0.2389   -4.2612 H   0  0  0  0  0  0  0  0  0  0  0  0
   -9.2288    1.3824   -4.8953 H   0  0  0  0  0  0  0  0  0  0  0  0
   -7.6439   -1.3933    1.5398 H   0  0  0  0  0  0  0  0  0  0  0  0
   -5.9742    0.1964    0.9147 H   0  0  0  0  0  0  0  0  0  0  0  0
   -5.6374    3.6832    0.4155 H   0  0  0  0  0  0  0  0  0  0  0  0
   -3.6918    4.2249    1.8090 H   0  0  0  0  0  0  0  0  0  0  0  0
   -1.3743    3.7497    2.5258 H   0  0  0  0  0  0  0  0  0  0  0  0
    0.9255    3.2749    3.2373 H   0  0  0  0  0  0  0  0  0  0  0  0
    3.2391    2.7905    3.9581 H   0  0  0  0  0  0  0  0  0  0  0  0
    5.2746    1.4273    3.7952 H   0  0  0  0  0  0  0  0  0  0  0  0
    5.9396    1.3978    0.4638 H   0  0  0  0  0  0  0  0  0  0  0  0
    7.7850    1.8967   -0.9702 H   0  0  0  0  0  0  0  0  0  0  0  0
   12.1027   -2.2013   -0.3824 H   0  0  0  0  0  0  0  0  0  0  0  0
   13.2275   -0.8620   -2.0302 H   0  0  0  0  0  0  0  0  0  0  0  0
   13.3038    1.0833   -3.5291 H   0  0  0  0  0  0  0  0  0  0  0  0
   11.3898    2.6596   -3.6086 H   0  0  0  0  0  0  0  0  0  0  0  0
    9.4347    2.2962   -2.2129 H   0  0  0  0  0  0  0  0  0  0  0  0
   11.0358   -3.5987    1.2772 H   0  0  0  0  0  0  0  0  0  0  0  0
    9.1509   -4.1047    2.7377 H   0  0  0  0  0  0  0  0  0  0  0  0
    6.9256   -3.5676    3.6120 H   0  0  0  0  0  0  0  0  0  0  0  0
    4.9567   -2.1199    3.6659 H   0  0  0  0  0  0  0  0  0  0  0  0
    3.4160   -1.0271    0.7944 H   0  0  0  0  0  0  0  0  0  0  0  0
    1.1144   -0.5446    0.0776 H   0  0  0  0  0  0  0  0  0  0  0  0
   -1.1854   -0.0720   -0.6314 H   0  0  0  0  0  0  0  0  0  0  0  0
   -3.4909    0.3997   -1.3438 H   0  0  0  0  0  0  0  0  0  0  0  0
   -5.2577    3.0591   -2.9432 H   0  0  0  0  0  0  0  0  0  0  0  0
   -7.1527    2.5914   -4.4153 H   0  0  0  0  0  0  0  0  0  0  0  0
  1  2  4  0
  2  3  4  0
  3  4  4  0
  4  5  4  0
  5  6  4  0
  5  7  4  0
  7  8  4  0
  8  9  4  0
  9 10  4  0
 10 11  4  0
 11 12  4  0
 12 13  4  0
 13 14  4  0
 14 15  4  0
 15 16  4  0
 16 17  4  0
 17 18  4  0
 18 19  1  0
 19 20  4  0
 20 21  4  0
 21 22  4  0
 22 23  4  0
 23 24  4  0
 24 25  4  0
 25 26  4  0
 26 27  4  0
 27 28  4  0
 28 29  4  0
 29 30  1  0
 30 31  4  0
 31 32  4  0
 32 33  4  0
 33 34  4  0
 34 35  4  0
 35 36  4  0
 36 37  4  0
 37 38  4  0
 38 39  4  0
 39 40  4  0
 40 41  4  0
 41 42  4  0
 42 43  4  0
 36 44  4  0
 44 45  4  0
 45 46  4  0
 46 47  4  0
 46 48  4  0
 48 49  4  0
 29 50  4  0
 50 51  4  0
 51 52  4  0
 52 53  4  0
 53 54  4  0
 54 55  4  0
 55 56  4  0
 18 57  4  0
 57 58  4  0
  6  1  4  0
 13  8  4  0
 56 19  4  0
 14  4  4  0
 55 22  4  0
 58 11  4  0
 17 12  4  0
 53 24  4  0
 51 26  4  0
 49 30  4  0
 47 31  4  0
 43 34  4  0
 47 35  4  0
 43 38  4  0
  1 59  1  0
  2 60  1  0
  3 61  1  0
  6 62  1  0
  7 63  1  0
  9 64  1  0
 10 65  1  0
 15 66  1  0
 16 67  1  0
 20 68  1  0
 21 69  1  0
 23 70  1  0
 25 71  1  0
 27 72  1  0
 28 73  1  0
 32 74  1  0
 33 75  1  0
 37 76  1  0
 39 77  1  0
 40 78  1  0
 41 79  1  0
 42 80  1  0
 44 81  1  0
 45 82  1  0
 48 83  1  0
 49 84  1  0
 50 85  1  0
 52 86  1  0
 54 87  1  0
 56 88  1  0
 57 89  1  0
 58 90  1  0
M  END
