
     RDKit          3D

 90103  0  0  0  0  0  0  0  0999 V2000
   11.7138   -1.9425   -3.0019 C   0  0  0  0  0  0  0  0  0  0  0  0
   10.6246   -1.1742   -3.4063 C   0  0  0  0  0  0  0  0  0  0  0  0
    9.6298   -0.8061   -2.4882 C   0  0  0  0  0  0  0  0  0  0  0  0
    9.7319   -1.2185   -1.1373 C   0  0  0  0  0  0  0  0  0  0  0  0
   10.8390   -1.9961   -0.7372 C   0  0  0  0  0  0  0  0  0  0  0  0
   11.8207   -2.3512   -1.6747 C   0  0  0  0  0  0  0  0  0  0  0  0
   10.9341   -2.3982    0.5935 C   0  0  0  0  0  0  0  0  0  0  0  0
    9.9485   -2.0378    1.5181 C   0  0  0  0  0  0  0  0  0  0  0  0
    8.8188   -1.2598    1.1658 C   0  0  0  0  0  0  0  0  0  0  0  0
    8.7311   -0.8548   -0.1911 C   0  0  0  0  0  0  0  0  0  0  0  0
    7.6398   -0.0780   -0.6245 C   0  0  0  0  0  0  0  0  0  0  0  0
    6.6471    0.2875    0.2894 C   0  0  0  0  0  0  0  0  0  0  0  0
    6.6834   -0.0922    1.6462 C   0  0  0  0  0  0  0  0  0  0  0  0
    5.6523    0.2900    2.5591 C   0  0  0  0  0  0  0  0  0  0  0  0
    4.4816    1.0850    2.1492 C   0  0  0  0  0  0  0  0  0  0  0  0
    4.4558    2.4715    2.3401 C   0  0  0  0  0  0  0  0  0  0  0  0
    3.3442    3.2231    1.9514 C   0  0  0  0  0  0  0  0  0  0  0  0
    2.2308    2.6046    1.3626 C   0  0  0  0  0  0  0  0  0  0  0  0
    1.1066    3.3460    0.9640 C   0  0  0  0  0  0  0  0  0  0  0  0
   -0.0069    2.7265    0.3722 C   0  0  0  0  0  0  0  0  0  0  0  0
   -1.1318    3.4679   -0.0264 C   0  0  0  0  0  0  0  0  0  0  0  0
   -2.2449    2.8482   -0.6175 C   0  0  0  0  0  0  0  0  0  0  0  0
   -3.3693    3.5881   -1.0133 C   0  0  0  0  0  0  0  0  0  0  0  0
   -4.4713    2.9558   -1.5943 C   0  0  0  0  0  0  0  0  0  0  0  0
   -4.4757    1.5701   -1.7930 C   0  0  0  0  0  0  0  0  0  0  0  0
   -5.6395    0.9007   -2.3996 C   0  0  0  0  0  0  0  0  0  0  0  0
   -6.6747    0.2982   -1.6199 C   0  0  0  0  0  0  0  0  0  0  0  0
   -6.6453    0.3202   -0.2110 C   0  0  0  0  0  0  0  0  0  0  0  0
   -7.6422   -0.2646    0.5749 C   0  0  0  0  0  0  0  0  0  0  0  0
   -7.5606   -0.2164    1.9737 C   0  0  0  0  0  0  0  0  0  0  0  0
   -8.5480   -0.7957    2.7692 C   0  0  0  0  0  0  0  0  0  0  0  0
   -9.6419   -1.4382    2.1834 C   0  0  0  0  0  0  0  0  0  0  0  0
   -9.7373   -1.4944    0.7715 C   0  0  0  0  0  0  0  0  0  0  0  0
  -10.8426   -2.1432    0.1820 C   0  0  0  0  0  0  0  0  0  0  0  0
  -11.8294   -2.7227    0.9943 C   0  0  0  0  0  0  0  0  0  0  0  0
  -11.7292   -2.6642    2.3824 C   0  0  0  0  0  0  0  0  0  0  0  0
  -10.6414   -2.0254    2.9734 C   0  0  0  0  0  0  0  0  0  0  0  0
  -10.9308   -2.1947   -1.2079 C   0  0  0  0  0  0  0  0  0  0  0  0
   -9.9400   -1.6134   -2.0061 C   0  0  0  0  0  0  0  0  0  0  0  0
   -8.8118   -0.9518   -1.4626 C   0  0  0  0  0  0  0  0  0  0  0  0
   -8.7315   -0.9043   -0.0468 C   0  0  0  0  0  0  0  0  0  0  0  0
   -7.7722   -0.3431   -2.2576 C   0  0  0  0  0  0  0  0  0  0  0  0
   -7.7802   -0.3465   -3.6751 C   0  0  0  0  0  0  0  0  0  0  0  0
   -6.7717    0.2437   -4.4351 C   0  0  0  0  0  0  0  0  0  0  0  0
   -5.7088    0.8626   -3.8002 C   0  0  0  0  0  0  0  0  0  0  0  0
   -3.3473    0.8307   -1.4043 C   0  0  0  0  0  0  0  0  0  0  0  0
   -2.2327    1.4521   -0.8160 C   0  0  0  0  0  0  0  0  0  0  0  0
   -1.1076    0.7117   -0.4184 C   0  0  0  0  0  0  0  0  0  0  0  0
    0.0048    1.3317    0.1743 C   0  0  0  0  0  0  0  0  0  0  0  0
    1.1284    0.5896    0.5743 C   0  0  0  0  0  0  0  0  0  0  0  0
    2.2414    1.2083    1.1662 C   0  0  0  0  0  0  0  0  0  0  0  0
    3.3654    0.4653    1.5651 C   0  0  0  0  0  0  0  0  0  0  0  0
    5.7310   -0.1012    3.9041 C   0  0  0  0  0  0  0  0  0  0  0  0
    6.7983   -0.8578    4.3556 C   0  0  0  0  0  0  0  0  0  0  0  0
    7.8018   -1.2346    3.4649 C   0  0  0  0  0  0  0  0  0  0  0  0
    7.7844   -0.8727    2.0945 C   0  0  0  0  0  0  0  0  0  0  0  0
    7.5521    0.3238   -1.9649 C   0  0  0  0  0  0  0  0  0  0  0  0
    8.5344   -0.0355   -2.8863 C   0  0  0  0  0  0  0  0  0  0  0  0
   12.4791   -2.2226   -3.7207 H   0  0  0  0  0  0  0  0  0  0  0  0
   10.5571   -0.8636   -4.4465 H   0  0  0  0  0  0  0  0  0  0  0  0
   12.6779   -2.9505   -1.3759 H   0  0  0  0  0  0  0  0  0  0  0  0
   11.7761   -2.9980    0.9316 H   0  0  0  0  0  0  0  0  0  0  0  0
   10.0915   -2.3887    2.5359 H   0  0  0  0  0  0  0  0  0  0  0  0
    5.8172    0.8920   -0.0755 H   0  0  0  0  0  0  0  0  0  0  0  0
    5.3086    2.9755    2.7907 H   0  0  0  0  0  0  0  0  0  0  0  0
    3.3576    4.2989    2.1117 H   0  0  0  0  0  0  0  0  0  0  0  0
    1.0985    4.4237    1.1166 H   0  0  0  0  0  0  0  0  0  0  0  0
   -1.1426    4.5455    0.1275 H   0  0  0  0  0  0  0  0  0  0  0  0
   -3.3996    4.6659   -0.8701 H   0  0  0  0  0  0  0  0  0  0  0  0
   -5.3339    3.5510   -1.8875 H   0  0  0  0  0  0  0  0  0  0  0  0
   -5.8171    0.8106    0.2996 H   0  0  0  0  0  0  0  0  0  0  0  0
   -6.7204    0.2756    2.4601 H   0  0  0  0  0  0  0  0  0  0  0  0
   -8.4518   -0.7394    3.8509 H   0  0  0  0  0  0  0  0  0  0  0  0
  -12.6851   -3.2254    0.5492 H   0  0  0  0  0  0  0  0  0  0  0  0
  -12.4982   -3.1161    3.0033 H   0  0  0  0  0  0  0  0  0  0  0  0
  -10.5785   -1.9890    4.0587 H   0  0  0  0  0  0  0  0  0  0  0  0
  -11.7713   -2.6880   -1.6910 H   0  0  0  0  0  0  0  0  0  0  0  0
  -10.0776   -1.6943   -3.0804 H   0  0  0  0  0  0  0  0  0  0  0  0
   -8.5876   -0.8174   -4.2285 H   0  0  0  0  0  0  0  0  0  0  0  0
   -6.8192    0.2166   -5.5204 H   0  0  0  0  0  0  0  0  0  0  0  0
   -4.9223    1.3185   -4.3988 H   0  0  0  0  0  0  0  0  0  0  0  0
   -3.3471   -0.2476   -1.5584 H   0  0  0  0  0  0  0  0  0  0  0  0
   -1.0982   -0.3662   -0.5714 H   0  0  0  0  0  0  0  0  0  0  0  0
    1.1381   -0.4883    0.4209 H   0  0  0  0  0  0  0  0  0  0  0  0
    3.3815   -0.6138    1.4169 H   0  0  0  0  0  0  0  0  0  0  0  0
    4.9475    0.1854    4.6032 H   0  0  0  0  0  0  0  0  0  0  0  0
    6.8531   -1.1588    5.3982 H   0  0  0  0  0  0  0  0  0  0  0  0
    8.6126   -1.8285    3.8764 H   0  0  0  0  0  0  0  0  0  0  0  0
    6.7112    0.9242   -2.3065 H   0  0  0  0  0  0  0  0  0  0  0  0
    8.4336    0.2933   -3.9181 H   0  0  0  0  0  0  0  0  0  0  0  0
  1  2  4  0
  2  3  4  0
  3  4  4  0
  4  5  4  0
  5  6  4  0
  5  7  4  0
  7  8  4  0
  8  9  4  0
  9 10  4  0
 10 11  4  0
 11 12  4  0
 12 13  4  0
 13 14  4  0
 14 15  1  0
 15 16  4  0
 16 17  4  0
 17 18  4  0
 18 19  4  0
 19 20  4  0
 20 21  4  0
 21 22  4  0
 22 23  4  0
 23 24  4  0
 24 25  4  0
 25 26  1  0
 26 27  4  0
 27 28  4  0
 28 29  4  0
 29 30  4  0
 30 31  4  0
 31 32  4  0
 32 33  4  0
 33 34  4  0
 34 35  4  0
 35 36  4  0
 36 37  4  0
 34 38  4  0
 38 39  4  0
 39 40  4  0
 40 41  4  0
 40 42  4  0
 42 43  4  0
 43 44  4  0
 44 45  4  0
 25 46  4  0
 46 47  4  0
 47 48  4  0
 48 49  4  0
 49 50  4  0
 50 51  4  0
 51 52  4  0
 14 53  4  0
 53 54  4  0
 54 55  4  0
 55 56  4  0
 11 57  4  0
 57 58  4  0
  6  1  4  0
 56  9  4  0
 58  3  4  0
 10  4  4  0
 56 13  4  0
 52 15  4  0
 51 18  4  0
 49 20  4  0
 47 22  4  0
 45 26  4  0
 42 27  4  0
 41 29  4  0
 37 32  4  0
 41 33  4  0
  1 59  1  0
  2 60  1  0
  6 61  1  0
  7 62  1  0
  8 63  1  0
 12 64  1  0
 16 65  1  0
 17 66  1  0
 19 67  1  0
 21 68  1  0
 23 69  1  0
 24 70  1  0
 28 71  1  0
 30 72  1  0
 31 73  1  0
 35 74  1  0
 36 75  1  0
 37 76  1  0
 38 77  1  0
 39 78  1  0
 43 79  1  0
 44 80  1  0
 45 81  1  0
 46 82  1  0
 48 83  1  0
 50 84  1  0
 52 85  1  0
 53 86  1  0
 54 87  1  0
 55 88  1  0
 57 89  1  0
 58 90  1  0
M  END
