
     RDKit          3D

 90103  0  0  0  0  0  0  0  0999 V2000
  -13.6801    1.9503   -2.7506 C   0  0  0  0  0  0  0  0  0  0  0  0
  -13.8739    2.1375   -1.3839 C   0  0  0  0  0  0  0  0  0  0  0  0
  -12.8756    1.7802   -0.4653 C   0  0  0  0  0  0  0  0  0  0  0  0
  -11.6591    1.2236   -0.9302 C   0  0  0  0  0  0  0  0  0  0  0  0
  -11.4715    1.0376   -2.3166 C   0  0  0  0  0  0  0  0  0  0  0  0
  -12.4858    1.4035   -3.2144 C   0  0  0  0  0  0  0  0  0  0  0  0
  -10.2719    0.4895   -2.7687 C   0  0  0  0  0  0  0  0  0  0  0  0
   -9.2681    0.1285   -1.8643 C   0  0  0  0  0  0  0  0  0  0  0  0
   -9.4105    0.2955   -0.4667 C   0  0  0  0  0  0  0  0  0  0  0  0
  -10.6349    0.8550   -0.0124 C   0  0  0  0  0  0  0  0  0  0  0  0
  -10.8547    1.0547    1.3675 C   0  0  0  0  0  0  0  0  0  0  0  0
   -9.8613    0.6993    2.2835 C   0  0  0  0  0  0  0  0  0  0  0  0
   -8.6460    0.1464    1.8672 C   0  0  0  0  0  0  0  0  0  0  0  0
   -7.6803   -0.1933    2.8270 C   0  0  0  0  0  0  0  0  0  0  0  0
   -6.4567   -0.7476    2.4543 C   0  0  0  0  0  0  0  0  0  0  0  0
   -6.1641   -0.9796    1.1098 C   0  0  0  0  0  0  0  0  0  0  0  0
   -4.8778   -1.5687    0.7053 C   0  0  0  0  0  0  0  0  0  0  0  0
   -4.8302   -2.7453   -0.0542 C   0  0  0  0  0  0  0  0  0  0  0  0
   -3.6077   -3.3078   -0.4334 C   0  0  0  0  0  0  0  0  0  0  0  0
   -2.3962   -2.7065   -0.0635 C   0  0  0  0  0  0  0  0  0  0  0  0
   -1.1596   -3.2593   -0.4356 C   0  0  0  0  0  0  0  0  0  0  0  0
    0.0538   -2.6553   -0.0655 C   0  0  0  0  0  0  0  0  0  0  0  0
    1.2909   -3.2074   -0.4381 C   0  0  0  0  0  0  0  0  0  0  0  0
    2.5037   -2.6030   -0.0678 C   0  0  0  0  0  0  0  0  0  0  0  0
    3.7390   -3.1523   -0.4401 C   0  0  0  0  0  0  0  0  0  0  0  0
    4.9370   -2.5385   -0.0630 C   0  0  0  0  0  0  0  0  0  0  0  0
    4.9361   -1.3609    0.6967 C   0  0  0  0  0  0  0  0  0  0  0  0
    6.1974   -0.7177    1.0973 C   0  0  0  0  0  0  0  0  0  0  0  0
    6.4822   -0.4680    2.4401 C   0  0  0  0  0  0  0  0  0  0  0  0
    7.6836    0.1356    2.8087 C   0  0  0  0  0  0  0  0  0  0  0  0
    8.6344    0.5080    1.8462 C   0  0  0  0  0  0  0  0  0  0  0  0
    9.8284    1.1087    2.2580 C   0  0  0  0  0  0  0  0  0  0  0  0
   10.8062    1.4968    1.3386 C   0  0  0  0  0  0  0  0  0  0  0  0
   11.9948    2.0955    1.7784 C   0  0  0  0  0  0  0  0  0  0  0  0
   12.9779    2.4868    0.8705 C   0  0  0  0  0  0  0  0  0  0  0  0
   12.7955    2.2887   -0.5009 C   0  0  0  0  0  0  0  0  0  0  0  0
   11.5999    1.6853   -0.9614 C   0  0  0  0  0  0  0  0  0  0  0  0
   11.4170    1.4862   -2.3466 C   0  0  0  0  0  0  0  0  0  0  0  0
   12.4156    1.8857   -3.2478 C   0  0  0  0  0  0  0  0  0  0  0  0
   13.5894    2.4783   -2.7883 C   0  0  0  0  0  0  0  0  0  0  0  0
   13.7782    2.6786   -1.4227 C   0  0  0  0  0  0  0  0  0  0  0  0
   10.2378    0.8920   -2.7941 C   0  0  0  0  0  0  0  0  0  0  0  0
    9.2500    0.4975   -1.8864 C   0  0  0  0  0  0  0  0  0  0  0  0
    9.3887    0.6757   -0.4898 C   0  0  0  0  0  0  0  0  0  0  0  0
   10.5918    1.2828   -0.0401 C   0  0  0  0  0  0  0  0  0  0  0  0
    8.3922    0.2793    0.4714 C   0  0  0  0  0  0  0  0  0  0  0  0
    7.1558   -0.3384    0.1381 C   0  0  0  0  0  0  0  0  0  0  0  0
    3.6955   -0.8143    1.0667 C   0  0  0  0  0  0  0  0  0  0  0  0
    2.4803   -1.4182    0.6946 C   0  0  0  0  0  0  0  0  0  0  0  0
    1.2428   -0.8661    1.0655 C   0  0  0  0  0  0  0  0  0  0  0  0
    0.0294   -1.4702    0.6953 C   0  0  0  0  0  0  0  0  0  0  0  0
   -1.2079   -0.9178    1.0677 C   0  0  0  0  0  0  0  0  0  0  0  0
   -2.4217   -1.5217    0.6988 C   0  0  0  0  0  0  0  0  0  0  0  0
   -3.6607   -0.9698    1.0728 C   0  0  0  0  0  0  0  0  0  0  0  0
   -7.1383   -0.6346    0.1534 C   0  0  0  0  0  0  0  0  0  0  0  0
   -8.3975   -0.0668    0.4910 C   0  0  0  0  0  0  0  0  0  0  0  0
  -12.0641    1.6068    1.8119 C   0  0  0  0  0  0  0  0  0  0  0  0
  -13.0627    1.9653    0.9073 C   0  0  0  0  0  0  0  0  0  0  0  0
  -14.4596    2.2305   -3.4541 H   0  0  0  0  0  0  0  0  0  0  0  0
  -14.8128    2.5658   -1.0399 H   0  0  0  0  0  0  0  0  0  0  0  0
  -12.3514    1.2646   -4.2848 H   0  0  0  0  0  0  0  0  0  0  0  0
  -10.0999    0.3357   -3.8317 H   0  0  0  0  0  0  0  0  0  0  0  0
   -8.3600   -0.2914   -2.2875 H   0  0  0  0  0  0  0  0  0  0  0  0
  -10.0390    0.8570    3.3463 H   0  0  0  0  0  0  0  0  0  0  0  0
   -7.8737   -0.0313    3.8857 H   0  0  0  0  0  0  0  0  0  0  0  0
   -5.7371   -1.0092    3.2273 H   0  0  0  0  0  0  0  0  0  0  0  0
   -5.7518   -3.2444   -0.3475 H   0  0  0  0  0  0  0  0  0  0  0  0
   -3.6118   -4.2246   -1.0189 H   0  0  0  0  0  0  0  0  0  0  0  0
   -1.1414   -4.1750   -1.0238 H   0  0  0  0  0  0  0  0  0  0  0  0
    1.3108   -4.1232   -1.0263 H   0  0  0  0  0  0  0  0  0  0  0  0
    3.7809   -4.0676   -1.0262 H   0  0  0  0  0  0  0  0  0  0  0  0
    5.8789   -2.9971   -0.3588 H   0  0  0  0  0  0  0  0  0  0  0  0
    5.7751   -0.7545    3.2155 H   0  0  0  0  0  0  0  0  0  0  0  0
    7.8717    0.3095    3.8665 H   0  0  0  0  0  0  0  0  0  0  0  0
   10.0019    1.2779    3.3198 H   0  0  0  0  0  0  0  0  0  0  0  0
   12.1684    2.2642    2.8392 H   0  0  0  0  0  0  0  0  0  0  0  0
   13.8880    2.9483    1.2469 H   0  0  0  0  0  0  0  0  0  0  0  0
   12.2849    1.7372   -4.3174 H   0  0  0  0  0  0  0  0  0  0  0  0
   14.3569    2.7842   -3.4942 H   0  0  0  0  0  0  0  0  0  0  0  0
   14.7008    3.1430   -1.0818 H   0  0  0  0  0  0  0  0  0  0  0  0
   10.0698    0.7274   -3.8562 H   0  0  0  0  0  0  0  0  0  0  0  0
    8.3576    0.0421   -2.3061 H   0  0  0  0  0  0  0  0  0  0  0  0
    6.9117   -0.5280   -0.9042 H   0  0  0  0  0  0  0  0  0  0  0  0
    3.6763    0.1069    1.6473 H   0  0  0  0  0  0  0  0  0  0  0  0
    1.2243    0.0505    1.6526 H   0  0  0  0  0  0  0  0  0  0  0  0
   -1.2267   -0.0015    1.6552 H   0  0  0  0  0  0  0  0  0  0  0  0
   -3.6802   -0.0485    1.6535 H   0  0  0  0  0  0  0  0  0  0  0  0
   -6.8885   -0.8099   -0.8901 H   0  0  0  0  0  0  0  0  0  0  0  0
  -12.2420    1.7643    2.8737 H   0  0  0  0  0  0  0  0  0  0  0  0
  -13.9886    2.3910    1.2872 H   0  0  0  0  0  0  0  0  0  0  0  0
  1  2  4  0
  2  3  4  0
  3  4  4  0
  4  5  4  0
  5  6  4  0
  5  7  4  0
  7  8  4  0
  8  9  4  0
  9 10  4  0
 10 11  4  0
 11 12  4  0
 12 13  4  0
 13 14  4  0
 14 15  4  0
 15 16  4  0
 16 17  1  0
 17 18  4  0
 18 19  4  0
 19 20  4  0
 20 21  4  0
 21 22  4  0
 22 23  4  0
 23 24  4  0
 24 25  4  0
 25 26  4  0
 26 27  4  0
 27 28  1  0
 28 29  4  0
 29 30  4  0
 30 31  4  0
 31 32  4  0
 32 33  4  0
 33 34  4  0
 34 35  4  0
 35 36  4  0
 36 37  4  0
 37 38  4  0
 38 39  4  0
 39 40  4  0
 40 41  4  0
 38 42  4  0
 42 43  4  0
 43 44  4  0
 44 45  4  0
 44 46  4  0
 46 47  4  0
 27 48  4  0
 48 49  4  0
 49 50  4  0
 50 51  4  0
 51 52  4  0
 52 53  4  0
 53 54  4  0
 16 55  4  0
 55 56  4  0
 11 57  4  0
 57 58  4  0
  6  1  4  0
 56  9  4  0
 58  3  4  0
 10  4  4  0
 56 13  4  0
 54 17  4  0
 53 20  4  0
 51 22  4  0
 49 24  4  0
 47 28  4  0
 46 31  4  0
 45 33  4  0
 41 36  4  0
 45 37  4  0
  1 59  1  0
  2 60  1  0
  6 61  1  0
  7 62  1  0
  8 63  1  0
 12 64  1  0
 14 65  1  0
 15 66  1  0
 18 67  1  0
 19 68  1  0
 21 69  1  0
 23 70  1  0
 25 71  1  0
 26 72  1  0
 29 73  1  0
 30 74  1  0
 32 75  1  0
 34 76  1  0
 35 77  1  0
 39 78  1  0
 40 79  1  0
 41 80  1  0
 42 81  1  0
 43 82  1  0
 47 83  1  0
 48 84  1  0
 50 85  1  0
 52 86  1  0
 54 87  1  0
 55 88  1  0
 57 89  1  0
 58 90  1  0
M  END
