
     RDKit          3D

 62 69  0  0  0  0  0  0  0  0999 V2000
   -8.5960   -1.4638    2.2357 C   0  0  0  0  0  0  0  0  0  0  0  0
   -8.9295   -0.1292    2.0107 C   0  0  0  0  0  0  0  0  0  0  0  0
   -8.1070    0.7016    1.2313 C   0  0  0  0  0  0  0  0  0  0  0  0
   -8.4619    2.0416    1.0166 C   0  0  0  0  0  0  0  0  0  0  0  0
   -7.6603    2.8793    0.2468 C   0  0  0  0  0  0  0  0  0  0  0  0
   -6.4891    2.3864   -0.3188 C   0  0  0  0  0  0  0  0  0  0  0  0
   -6.0979    1.0487   -0.1256 C   0  0  0  0  0  0  0  0  0  0  0  0
   -4.8442    0.5959   -0.7484 C   0  0  0  0  0  0  0  0  0  0  0  0
   -4.8325    0.1115   -2.0615 C   0  0  0  0  0  0  0  0  0  0  0  0
   -3.6407   -0.3179   -2.6509 C   0  0  0  0  0  0  0  0  0  0  0  0
   -2.4314   -0.2714   -1.9405 C   0  0  0  0  0  0  0  0  0  0  0  0
   -1.2252   -0.7011   -2.5179 C   0  0  0  0  0  0  0  0  0  0  0  0
   -0.0145   -0.6557   -1.8057 C   0  0  0  0  0  0  0  0  0  0  0  0
    1.1923   -1.0867   -2.3825 C   0  0  0  0  0  0  0  0  0  0  0  0
    2.4022   -1.0429   -1.6698 C   0  0  0  0  0  0  0  0  0  0  0  0
    3.6070   -1.4746   -2.2454 C   0  0  0  0  0  0  0  0  0  0  0  0
    4.8019   -1.4259   -1.5229 C   0  0  0  0  0  0  0  0  0  0  0  0
    4.8218   -0.9428   -0.2093 C   0  0  0  0  0  0  0  0  0  0  0  0
    6.0787   -0.8956    0.5545 C   0  0  0  0  0  0  0  0  0  0  0  0
    6.9327    0.2453    0.5512 C   0  0  0  0  0  0  0  0  0  0  0  0
    6.6566    1.4261   -0.1782 C   0  0  0  0  0  0  0  0  0  0  0  0
    7.5207    2.5232   -0.1550 C   0  0  0  0  0  0  0  0  0  0  0  0
    8.6856    2.4708    0.5984 C   0  0  0  0  0  0  0  0  0  0  0  0
    8.9864    1.3218    1.3281 C   0  0  0  0  0  0  0  0  0  0  0  0
    8.1277    0.2097    1.3150 C   0  0  0  0  0  0  0  0  0  0  0  0
    8.4503   -0.9366    2.0562 C   0  0  0  0  0  0  0  0  0  0  0  0
    7.6123   -2.0478    2.0556 C   0  0  0  0  0  0  0  0  0  0  0  0
    6.4374   -2.0264    1.3112 C   0  0  0  0  0  0  0  0  0  0  0  0
    3.6166   -0.5123    0.3674 C   0  0  0  0  0  0  0  0  0  0  0  0
    2.4062   -0.5553   -0.3468 C   0  0  0  0  0  0  0  0  0  0  0  0
    1.1997   -0.1235    0.2288 C   0  0  0  0  0  0  0  0  0  0  0  0
   -0.0105   -0.1681   -0.4841 C   0  0  0  0  0  0  0  0  0  0  0  0
   -1.2169    0.2626    0.0934 C   0  0  0  0  0  0  0  0  0  0  0  0
   -2.4274    0.2169   -0.6177 C   0  0  0  0  0  0  0  0  0  0  0  0
   -3.6341    0.6462   -0.0387 C   0  0  0  0  0  0  0  0  0  0  0  0
   -6.9156    0.1855    0.6601 C   0  0  0  0  0  0  0  0  0  0  0  0
   -6.6063   -1.1734    0.9066 C   0  0  0  0  0  0  0  0  0  0  0  0
   -7.4344   -1.9864    1.6835 C   0  0  0  0  0  0  0  0  0  0  0  0
   -9.2436   -2.0924    2.8409 H   0  0  0  0  0  0  0  0  0  0  0  0
   -9.8444    0.2610    2.4518 H   0  0  0  0  0  0  0  0  0  0  0  0
   -9.3738    2.4455    1.4515 H   0  0  0  0  0  0  0  0  0  0  0  0
   -7.9474    3.9154    0.0889 H   0  0  0  0  0  0  0  0  0  0  0  0
   -5.8694    3.0519   -0.9173 H   0  0  0  0  0  0  0  0  0  0  0  0
   -5.7579    0.0625   -2.6321 H   0  0  0  0  0  0  0  0  0  0  0  0
   -3.6666   -0.6913   -3.6722 H   0  0  0  0  0  0  0  0  0  0  0  0
   -1.2290   -1.0781   -3.5392 H   0  0  0  0  0  0  0  0  0  0  0  0
    1.1901   -1.4637   -3.4037 H   0  0  0  0  0  0  0  0  0  0  0  0
    3.6262   -1.8545   -3.2644 H   0  0  0  0  0  0  0  0  0  0  0  0
    5.7233   -1.7659   -1.9918 H   0  0  0  0  0  0  0  0  0  0  0  0
    5.7530    1.5029   -0.7801 H   0  0  0  0  0  0  0  0  0  0  0  0
    7.2794    3.4153   -0.7269 H   0  0  0  0  0  0  0  0  0  0  0  0
    9.3610    3.3217    0.6195 H   0  0  0  0  0  0  0  0  0  0  0  0
    9.9043    1.3006    1.9120 H   0  0  0  0  0  0  0  0  0  0  0  0
    9.3652   -0.9722    2.6442 H   0  0  0  0  0  0  0  0  0  0  0  0
    7.8747   -2.9293    2.6343 H   0  0  0  0  0  0  0  0  0  0  0  0
    5.7900   -2.9017    1.3186 H   0  0  0  0  0  0  0  0  0  0  0  0
    3.6281   -0.1363    1.3896 H   0  0  0  0  0  0  0  0  0  0  0  0
    1.2027    0.2533    1.2503 H   0  0  0  0  0  0  0  0  0  0  0  0
   -1.2138    0.6395    1.1148 H   0  0  0  0  0  0  0  0  0  0  0  0
   -3.6405    1.0235    0.9830 H   0  0  0  0  0  0  0  0  0  0  0  0
   -5.7047   -1.6175    0.4888 H   0  0  0  0  0  0  0  0  0  0  0  0
   -7.1678   -3.0262    1.8538 H   0  0  0  0  0  0  0  0  0  0  0  0
  1  2  4  0
  2  3  4  0
  3  4  4  0
  4  5  4  0
  5  6  4  0
  6  7  4  0
  7  8  1  0
  8  9  4  0
  9 10  4  0
 10 11  4  0
 11 12  4  0
 12 13  4  0
 13 14  4  0
 14 15  4  0
 15 16  4  0
 16 17  4  0
 17 18  4  0
 18 19  1  0
 19 20  4  0
 20 21  4  0
 21 22  4  0
 22 23  4  0
 23 24  4  0
 24 25  4  0
 25 26  4  0
 26 27  4  0
 27 28  4  0
 18 29  4  0
 29 30  4  0
 30 31  4  0
 31 32  4  0
 32 33  4  0
 33 34  4  0
 34 35  4  0
  7 36  4  0
 36 37  4  0
 37 38  4  0
 38  1  4  0
 36  3  4  0
 35  8  4  0
 34 11  4  0
 32 13  4  0
 30 15  4  0
 28 19  4  0
 25 20  4  0
  1 39  1  0
  2 40  1  0
  4 41  1  0
  5 42  1  0
  6 43  1  0
  9 44  1  0
 10 45  1  0
 12 46  1  0
 14 47  1  0
 16 48  1  0
 17 49  1  0
 21 50  1  0
 22 51  1  0
 23 52  1  0
 24 53  1  0
 26 54  1  0
 27 55  1  0
 28 56  1  0
 29 57  1  0
 31 58  1  0
 33 59  1  0
 35 60  1  0
 37 61  1  0
 38 62  1  0
M  END
