
     RDKit          3D

 74 83  0  0  0  0  0  0  0  0999 V2000
  -13.0964   -0.8803    2.1773 C   0  0  0  0  0  0  0  0  0  0  0  0
  -12.0254   -0.1150    2.6415 C   0  0  0  0  0  0  0  0  0  0  0  0
  -10.8240   -0.0454    1.9169 C   0  0  0  0  0  0  0  0  0  0  0  0
   -9.7373    0.7197    2.3716 C   0  0  0  0  0  0  0  0  0  0  0  0
   -8.5363    0.7879    1.6461 C   0  0  0  0  0  0  0  0  0  0  0  0
   -7.4502    1.5498    2.0999 C   0  0  0  0  0  0  0  0  0  0  0  0
   -6.2611    1.6074    1.3671 C   0  0  0  0  0  0  0  0  0  0  0  0
   -6.1233    0.9080    0.1607 C   0  0  0  0  0  0  0  0  0  0  0  0
   -4.8729    0.9696   -0.6118 C   0  0  0  0  0  0  0  0  0  0  0  0
   -4.8700    1.3976   -1.9460 C   0  0  0  0  0  0  0  0  0  0  0  0
   -3.6812    1.4572   -2.6795 C   0  0  0  0  0  0  0  0  0  0  0  0
   -2.4600    1.0873   -2.0978 C   0  0  0  0  0  0  0  0  0  0  0  0
   -1.2570    1.1402   -2.8212 C   0  0  0  0  0  0  0  0  0  0  0  0
   -0.0343    0.7670   -2.2381 C   0  0  0  0  0  0  0  0  0  0  0  0
    1.1695    0.8193   -2.9612 C   0  0  0  0  0  0  0  0  0  0  0  0
    2.3914    0.4450   -2.3778 C   0  0  0  0  0  0  0  0  0  0  0  0
    3.5936    0.4976   -3.0980 C   0  0  0  0  0  0  0  0  0  0  0  0
    4.8012    0.1213   -2.5022 C   0  0  0  0  0  0  0  0  0  0  0  0
    4.8427   -0.3192   -1.1727 C   0  0  0  0  0  0  0  0  0  0  0  0
    6.1127   -0.7179   -0.5459 C   0  0  0  0  0  0  0  0  0  0  0  0
    6.2669   -1.9872    0.0273 C   0  0  0  0  0  0  0  0  0  0  0  0
    7.4740   -2.3664    0.6218 C   0  0  0  0  0  0  0  0  0  0  0  0
    8.5629   -1.4839    0.6605 C   0  0  0  0  0  0  0  0  0  0  0  0
    9.7821   -1.8501    1.2545 C   0  0  0  0  0  0  0  0  0  0  0  0
   10.8717   -0.9645    1.2937 C   0  0  0  0  0  0  0  0  0  0  0  0
   12.0916   -1.3290    1.8874 C   0  0  0  0  0  0  0  0  0  0  0  0
   13.1651   -0.4376    1.9190 C   0  0  0  0  0  0  0  0  0  0  0  0
   13.0331    0.8288    1.3580 C   0  0  0  0  0  0  0  0  0  0  0  0
   11.8274    1.2058    0.7645 C   0  0  0  0  0  0  0  0  0  0  0  0
   10.7379    0.3200    0.7245 C   0  0  0  0  0  0  0  0  0  0  0  0
    9.5181    0.6846    0.1306 C   0  0  0  0  0  0  0  0  0  0  0  0
    8.4286   -0.2018    0.0905 C   0  0  0  0  0  0  0  0  0  0  0  0
    7.2070    0.1628   -0.5048 C   0  0  0  0  0  0  0  0  0  0  0  0
    3.6352   -0.3698   -0.4555 C   0  0  0  0  0  0  0  0  0  0  0  0
    2.4114    0.0065   -1.0389 C   0  0  0  0  0  0  0  0  0  0  0  0
    1.2076   -0.0441   -0.3161 C   0  0  0  0  0  0  0  0  0  0  0  0
   -0.0148    0.3305   -0.8991 C   0  0  0  0  0  0  0  0  0  0  0  0
   -1.2184    0.2789   -0.1754 C   0  0  0  0  0  0  0  0  0  0  0  0
   -2.4413    0.6525   -0.7576 C   0  0  0  0  0  0  0  0  0  0  0  0
   -3.6465    0.6006   -0.0333 C   0  0  0  0  0  0  0  0  0  0  0  0
   -7.2147    0.1463   -0.2902 C   0  0  0  0  0  0  0  0  0  0  0  0
   -8.4180    0.0757    0.4355 C   0  0  0  0  0  0  0  0  0  0  0  0
   -9.5047   -0.6904   -0.0190 C   0  0  0  0  0  0  0  0  0  0  0  0
  -10.7061   -0.7602    0.7058 C   0  0  0  0  0  0  0  0  0  0  0  0
  -11.7929   -1.5260    0.2519 C   0  0  0  0  0  0  0  0  0  0  0  0
  -12.9801   -1.5853    0.9835 C   0  0  0  0  0  0  0  0  0  0  0  0
  -14.0198   -0.9251    2.7487 H   0  0  0  0  0  0  0  0  0  0  0  0
  -12.1353    0.4290    3.5770 H   0  0  0  0  0  0  0  0  0  0  0  0
   -9.8279    1.2705    3.3059 H   0  0  0  0  0  0  0  0  0  0  0  0
   -7.5203    2.1098    3.0298 H   0  0  0  0  0  0  0  0  0  0  0  0
   -5.4414    2.2171    1.7423 H   0  0  0  0  0  0  0  0  0  0  0  0
   -5.7991    1.7017   -2.4245 H   0  0  0  0  0  0  0  0  0  0  0  0
   -3.7193    1.7984   -3.7115 H   0  0  0  0  0  0  0  0  0  0  0  0
   -1.2729    1.4772   -3.8562 H   0  0  0  0  0  0  0  0  0  0  0  0
    1.1553    1.1572   -3.9959 H   0  0  0  0  0  0  0  0  0  0  0  0
    3.6019    0.8299   -4.1337 H   0  0  0  0  0  0  0  0  0  0  0  0
    5.7143    0.1633   -3.0930 H   0  0  0  0  0  0  0  0  0  0  0  0
    5.4457   -2.7011    0.0044 H   0  0  0  0  0  0  0  0  0  0  0  0
    7.5554   -3.3617    1.0530 H   0  0  0  0  0  0  0  0  0  0  0  0
    9.8849   -2.8405    1.6939 H   0  0  0  0  0  0  0  0  0  0  0  0
   12.2142   -2.3143    2.3314 H   0  0  0  0  0  0  0  0  0  0  0  0
   14.1030   -0.7332    2.3818 H   0  0  0  0  0  0  0  0  0  0  0  0
   13.8676    1.5247    1.3817 H   0  0  0  0  0  0  0  0  0  0  0  0
   11.7438    2.2001    0.3316 H   0  0  0  0  0  0  0  0  0  0  0  0
    9.4152    1.6756   -0.3078 H   0  0  0  0  0  0  0  0  0  0  0  0
    7.1005    1.1576   -0.9354 H   0  0  0  0  0  0  0  0  0  0  0  0
    3.6516   -0.6987    0.5827 H   0  0  0  0  0  0  0  0  0  0  0  0
    1.2227   -0.3815    0.7189 H   0  0  0  0  0  0  0  0  0  0  0  0
   -1.2034   -0.0586    0.8595 H   0  0  0  0  0  0  0  0  0  0  0  0
   -3.6339    0.2542    0.9993 H   0  0  0  0  0  0  0  0  0  0  0  0
   -7.1200   -0.4123   -1.2204 H   0  0  0  0  0  0  0  0  0  0  0  0
   -9.4140   -1.2423   -0.9528 H   0  0  0  0  0  0  0  0  0  0  0  0
  -11.7213   -2.0844   -0.6788 H   0  0  0  0  0  0  0  0  0  0  0  0
  -13.8126   -2.1821    0.6202 H   0  0  0  0  0  0  0  0  0  0  0  0
  1  2  4  0
  2  3  4  0
  3  4  4  0
  4  5  4  0
  5  6  4  0
  6  7  4  0
  7  8  4  0
  8  9  1  0
  9 10  4  0
 10 11  4  0
 11 12  4  0
 12 13  4  0
 13 14  4  0
 14 15  4  0
 15 16  4  0
 16 17  4  0
 17 18  4  0
 18 19  4  0
 19 20  1  0
 20 21  4  0
 21 22  4  0
 22 23  4  0
 23 24  4  0
 24 25  4  0
 25 26  4  0
 26 27  4  0
 27 28  4  0
 28 29  4  0
 29 30  4  0
 30 31  4  0
 31 32  4  0
 32 33  4  0
 19 34  4  0
 34 35  4  0
 35 36  4  0
 36 37  4  0
 37 38  4  0
 38 39  4  0
 39 40  4  0
  8 41  4  0
 41 42  4  0
 42 43  4  0
 43 44  4  0
 44 45  4  0
 45 46  4  0
 46  1  4  0
 44  3  4  0
 42  5  4  0
 40  9  4  0
 39 12  4  0
 37 14  4  0
 35 16  4  0
 33 20  4  0
 32 23  4  0
 30 25  4  0
  1 47  1  0
  2 48  1  0
  4 49  1  0
  6 50  1  0
  7 51  1  0
 10 52  1  0
 11 53  1  0
 13 54  1  0
 15 55  1  0
 17 56  1  0
 18 57  1  0
 21 58  1  0
 22 59  1  0
 24 60  1  0
 26 61  1  0
 27 62  1  0
 28 63  1  0
 29 64  1  0
 31 65  1  0
 33 66  1  0
 34 67  1  0
 36 68  1  0
 38 69  1  0
 40 70  1  0
 41 71  1  0
 43 72  1  0
 45 73  1  0
 46 74  1  0
M  END
