
     RDKit          3D

 74 83  0  0  0  0  0  0  0  0999 V2000
   -8.2425    3.4347    0.3220 C   0  0  0  0  0  0  0  0  0  0  0  0
   -7.0514    3.3568   -0.3838 C   0  0  0  0  0  0  0  0  0  0  0  0
   -6.3637    2.1430   -0.4530 C   0  0  0  0  0  0  0  0  0  0  0  0
   -6.8435    0.9686    0.1805 C   0  0  0  0  0  0  0  0  0  0  0  0
   -8.0588    1.0719    0.8940 C   0  0  0  0  0  0  0  0  0  0  0  0
   -8.7420    2.2993    0.9563 C   0  0  0  0  0  0  0  0  0  0  0  0
   -8.5841   -0.0529    1.5413 C   0  0  0  0  0  0  0  0  0  0  0  0
   -7.9386   -1.2948    1.5071 C   0  0  0  0  0  0  0  0  0  0  0  0
   -8.5032   -2.3971    2.1728 C   0  0  0  0  0  0  0  0  0  0  0  0
   -7.8825   -3.6443    2.1555 C   0  0  0  0  0  0  0  0  0  0  0  0
   -6.6872   -3.8051    1.4713 C   0  0  0  0  0  0  0  0  0  0  0  0
   -6.1166   -2.7175    0.8061 C   0  0  0  0  0  0  0  0  0  0  0  0
   -6.7214   -1.4350    0.8031 C   0  0  0  0  0  0  0  0  0  0  0  0
   -6.1702   -0.2947    0.1344 C   0  0  0  0  0  0  0  0  0  0  0  0
   -4.8974   -0.4227   -0.6086 C   0  0  0  0  0  0  0  0  0  0  0  0
   -4.8935   -0.7803   -1.9626 C   0  0  0  0  0  0  0  0  0  0  0  0
   -3.6911   -0.9018   -2.6627 C   0  0  0  0  0  0  0  0  0  0  0  0
   -2.4636   -0.6677   -2.0250 C   0  0  0  0  0  0  0  0  0  0  0  0
   -1.2467   -0.7857   -2.7158 C   0  0  0  0  0  0  0  0  0  0  0  0
   -0.0168   -0.5490   -2.0788 C   0  0  0  0  0  0  0  0  0  0  0  0
    1.2006   -0.6657   -2.7705 C   0  0  0  0  0  0  0  0  0  0  0  0
    2.4298   -0.4257   -2.1350 C   0  0  0  0  0  0  0  0  0  0  0  0
    3.6451   -0.5402   -2.8268 C   0  0  0  0  0  0  0  0  0  0  0  0
    4.8594   -0.2942   -2.1820 C   0  0  0  0  0  0  0  0  0  0  0  0
    4.8879    0.0720   -0.8306 C   0  0  0  0  0  0  0  0  0  0  0  0
    6.1726    0.3404   -0.1479 C   0  0  0  0  0  0  0  0  0  0  0  0
    6.8674   -0.7263    0.5079 C   0  0  0  0  0  0  0  0  0  0  0  0
    6.3987   -2.0637    0.5535 C   0  0  0  0  0  0  0  0  0  0  0  0
    7.1067   -3.0760    1.2055 C   0  0  0  0  0  0  0  0  0  0  0  0
    8.3082   -2.7826    1.8326 C   0  0  0  0  0  0  0  0  0  0  0  0
    8.7976   -1.4785    1.8062 C   0  0  0  0  0  0  0  0  0  0  0  0
    8.0937   -0.4508    1.1539 C   0  0  0  0  0  0  0  0  0  0  0  0
    8.6087    0.8511    1.1442 C   0  0  0  0  0  0  0  0  0  0  0  0
    7.9419    1.9058    0.5093 C   0  0  0  0  0  0  0  0  0  0  0  0
    8.4963    3.1979    0.5267 C   0  0  0  0  0  0  0  0  0  0  0  0
    7.8538    4.2658   -0.0959 C   0  0  0  0  0  0  0  0  0  0  0  0
    6.6467    4.0548   -0.7449 C   0  0  0  0  0  0  0  0  0  0  0  0
    6.0862    2.7757   -0.7694 C   0  0  0  0  0  0  0  0  0  0  0  0
    6.7131    1.6668   -0.1464 C   0  0  0  0  0  0  0  0  0  0  0  0
    3.6718    0.1838   -0.1371 C   0  0  0  0  0  0  0  0  0  0  0  0
    2.4426   -0.0603   -0.7730 C   0  0  0  0  0  0  0  0  0  0  0  0
    1.2256    0.0534   -0.0814 C   0  0  0  0  0  0  0  0  0  0  0  0
   -0.0041   -0.1861   -0.7176 C   0  0  0  0  0  0  0  0  0  0  0  0
   -1.2215   -0.0702   -0.0256 C   0  0  0  0  0  0  0  0  0  0  0  0
   -2.4513   -0.3059   -0.6620 C   0  0  0  0  0  0  0  0  0  0  0  0
   -3.6688   -0.1882    0.0300 C   0  0  0  0  0  0  0  0  0  0  0  0
   -8.7835    4.3752    0.3806 H   0  0  0  0  0  0  0  0  0  0  0  0
   -6.6517    4.2358   -0.8826 H   0  0  0  0  0  0  0  0  0  0  0  0
   -5.4327    2.1245   -1.0169 H   0  0  0  0  0  0  0  0  0  0  0  0
   -9.6781    2.3806    1.5054 H   0  0  0  0  0  0  0  0  0  0  0  0
   -9.5218    0.0409    2.0877 H   0  0  0  0  0  0  0  0  0  0  0  0
   -9.4406   -2.2909    2.7153 H   0  0  0  0  0  0  0  0  0  0  0  0
   -8.3328   -4.4854    2.6752 H   0  0  0  0  0  0  0  0  0  0  0  0
   -6.1936   -4.7731    1.4508 H   0  0  0  0  0  0  0  0  0  0  0  0
   -5.1781   -2.8861    0.2811 H   0  0  0  0  0  0  0  0  0  0  0  0
   -5.8333   -0.9668   -2.4787 H   0  0  0  0  0  0  0  0  0  0  0  0
   -3.7232   -1.1814   -3.7134 H   0  0  0  0  0  0  0  0  0  0  0  0
   -1.2570   -1.0658   -3.7676 H   0  0  0  0  0  0  0  0  0  0  0  0
    1.1911   -0.9464   -3.8222 H   0  0  0  0  0  0  0  0  0  0  0  0
    3.6580   -0.8215   -3.8776 H   0  0  0  0  0  0  0  0  0  0  0  0
    5.7891   -0.3874   -2.7400 H   0  0  0  0  0  0  0  0  0  0  0  0
    5.4603   -2.3359    0.0737 H   0  0  0  0  0  0  0  0  0  0  0  0
    6.7141   -4.0892    1.2196 H   0  0  0  0  0  0  0  0  0  0  0  0
    8.8651   -3.5643    2.3418 H   0  0  0  0  0  0  0  0  0  0  0  0
    9.7421   -1.2679    2.3041 H   0  0  0  0  0  0  0  0  0  0  0  0
    9.5550    1.0493    1.6460 H   0  0  0  0  0  0  0  0  0  0  0  0
    9.4426    3.3836    1.0312 H   0  0  0  0  0  0  0  0  0  0  0  0
    8.2962    5.2579   -0.0725 H   0  0  0  0  0  0  0  0  0  0  0  0
    6.1356    4.8800   -1.2339 H   0  0  0  0  0  0  0  0  0  0  0  0
    5.1376    2.6530   -1.2892 H   0  0  0  0  0  0  0  0  0  0  0  0
    3.6914    0.4681    0.9142 H   0  0  0  0  0  0  0  0  0  0  0  0
    1.2356    0.3347    0.9704 H   0  0  0  0  0  0  0  0  0  0  0  0
   -1.2116    0.2094    1.0266 H   0  0  0  0  0  0  0  0  0  0  0  0
   -3.6694    0.0905    1.0829 H   0  0  0  0  0  0  0  0  0  0  0  0
  1  2  4  0
  2  3  4  0
  3  4  4  0
  4  5  4  0
  5  6  4  0
  5  7  4  0
  7  8  4  0
  8  9  4  0
  9 10  4  0
 10 11  4  0
 11 12  4  0
 12 13  4  0
 13 14  4  0
 14 15  1  0
 15 16  4  0
 16 17  4  0
 17 18  4  0
 18 19  4  0
 19 20  4  0
 20 21  4  0
 21 22  4  0
 22 23  4  0
 23 24  4  0
 24 25  4  0
 25 26  1  0
 26 27  4  0
 27 28  4  0
 28 29  4  0
 29 30  4  0
 30 31  4  0
 31 32  4  0
 32 33  4  0
 33 34  4  0
 34 35  4  0
 35 36  4  0
 36 37  4  0
 37 38  4  0
 38 39  4  0
 25 40  4  0
 40 41  4  0
 41 42  4  0
 42 43  4  0
 43 44  4  0
 44 45  4  0
 45 46  4  0
  6  1  4  0
 13  8  4  0
 46 15  4  0
 14  4  4  0
 45 18  4  0
 43 20  4  0
 41 22  4  0
 39 26  4  0
 32 27  4  0
 39 34  4  0
  1 47  1  0
  2 48  1  0
  3 49  1  0
  6 50  1  0
  7 51  1  0
  9 52  1  0
 10 53  1  0
 11 54  1  0
 12 55  1  0
 16 56  1  0
 17 57  1  0
 19 58  1  0
 21 59  1  0
 23 60  1  0
 24 61  1  0
 28 62  1  0
 29 63  1  0
 30 64  1  0
 31 65  1  0
 33 66  1  0
 35 67  1  0
 36 68  1  0
 37 69  1  0
 38 70  1  0
 40 71  1  0
 42 72  1  0
 44 73  1  0
 46 74  1  0
M  END
