
     RDKit          3D

 94107  0  0  0  0  0  0  0  0999 V2000
   10.7969    4.3156   -0.4265 C   0  0  0  0  0  0  0  0  0  0  0  0
    9.6958    4.6337   -1.2163 C   0  0  0  0  0  0  0  0  0  0  0  0
    8.6345    3.7342   -1.3279 C   0  0  0  0  0  0  0  0  0  0  0  0
    8.6637    2.5048   -0.6497 C   0  0  0  0  0  0  0  0  0  0  0  0
    7.6095    1.5846   -0.7468 C   0  0  0  0  0  0  0  0  0  0  0  0
    7.6378    0.3685   -0.0769 C   0  0  0  0  0  0  0  0  0  0  0  0
    6.6054   -0.4820   -0.2005 N   0  0  0  0  0  0  0  0  0  0  0  0
    6.6500   -1.6639    0.4598 C   0  0  0  0  0  0  0  0  0  0  0  0
    7.7726   -1.9699    1.2550 C   0  0  0  0  0  0  0  0  0  0  0  0
    8.8100   -1.1224    1.3825 N   0  0  0  0  0  0  0  0  0  0  0  0
    8.7490    0.0459    0.7210 C   0  0  0  0  0  0  0  0  0  0  0  0
    9.7972    0.9518    0.8231 C   0  0  0  0  0  0  0  0  0  0  0  0
    9.7779    2.1827    0.1498 C   0  0  0  0  0  0  0  0  0  0  0  0
   10.8386    3.0974    0.2532 C   0  0  0  0  0  0  0  0  0  0  0  0
    7.8266   -3.1751    1.9334 C   0  0  0  0  0  0  0  0  0  0  0  0
    6.7943   -4.1159    1.8632 C   0  0  0  0  0  0  0  0  0  0  0  0
    6.8903   -5.3263    2.5712 C   0  0  0  0  0  0  0  0  0  0  0  0
    5.8700   -6.2733    2.5144 C   0  0  0  0  0  0  0  0  0  0  0  0
    4.7408   -6.0207    1.7490 C   0  0  0  0  0  0  0  0  0  0  0  0
    4.6355   -4.8216    1.0411 C   0  0  0  0  0  0  0  0  0  0  0  0
    5.6563   -3.8393    1.0771 C   0  0  0  0  0  0  0  0  0  0  0  0
    5.5956   -2.5986    0.3705 C   0  0  0  0  0  0  0  0  0  0  0  0
    4.4227   -2.2724   -0.4682 C   0  0  0  0  0  0  0  0  0  0  0  0
    4.3717   -2.6669   -1.8111 C   0  0  0  0  0  0  0  0  0  0  0  0
    3.2553   -2.3731   -2.5973 C   0  0  0  0  0  0  0  0  0  0  0  0
    2.1637   -1.6749   -2.0600 C   0  0  0  0  0  0  0  0  0  0  0  0
    1.0334   -1.3749   -2.8375 C   0  0  0  0  0  0  0  0  0  0  0  0
   -0.0582   -0.6715   -2.3020 C   0  0  0  0  0  0  0  0  0  0  0  0
   -1.1887   -0.3720   -3.0805 C   0  0  0  0  0  0  0  0  0  0  0  0
   -2.2797    0.3323   -2.5458 C   0  0  0  0  0  0  0  0  0  0  0  0
   -3.4101    0.6291   -3.3219 C   0  0  0  0  0  0  0  0  0  0  0  0
   -4.4873    1.3308   -2.7752 C   0  0  0  0  0  0  0  0  0  0  0  0
   -4.4597    1.7555   -1.4408 C   0  0  0  0  0  0  0  0  0  0  0  0
   -5.5917    2.5132   -0.8657 C   0  0  0  0  0  0  0  0  0  0  0  0
   -5.6276    3.9395   -0.9576 C   0  0  0  0  0  0  0  0  0  0  0  0
   -4.6209    4.7198   -1.5794 C   0  0  0  0  0  0  0  0  0  0  0  0
   -4.7009    6.1128   -1.6439 C   0  0  0  0  0  0  0  0  0  0  0  0
   -5.7905    6.7677   -1.0883 C   0  0  0  0  0  0  0  0  0  0  0  0
   -6.7964    6.0286   -0.4695 C   0  0  0  0  0  0  0  0  0  0  0  0
   -6.7254    4.6264   -0.3988 C   0  0  0  0  0  0  0  0  0  0  0  0
   -7.7436    3.9006    0.2274 C   0  0  0  0  0  0  0  0  0  0  0  0
   -7.7145    2.5200    0.3217 C   0  0  0  0  0  0  0  0  0  0  0  0
   -8.7376    1.9055    0.9436 N   0  0  0  0  0  0  0  0  0  0  0  0
   -8.7026    0.5650    1.0330 C   0  0  0  0  0  0  0  0  0  0  0  0
   -9.7370   -0.1119    1.6673 C   0  0  0  0  0  0  0  0  0  0  0  0
   -9.7423   -1.5103    1.7860 C   0  0  0  0  0  0  0  0  0  0  0  0
  -10.7885   -2.1938    2.4278 C   0  0  0  0  0  0  0  0  0  0  0  0
  -10.7705   -3.5854    2.5340 C   0  0  0  0  0  0  0  0  0  0  0  0
   -9.7083   -4.3095    2.0005 C   0  0  0  0  0  0  0  0  0  0  0  0
   -8.6624   -3.6433    1.3597 C   0  0  0  0  0  0  0  0  0  0  0  0
   -8.6676   -2.2434    1.2457 C   0  0  0  0  0  0  0  0  0  0  0  0
   -7.6278   -1.5518    0.6060 C   0  0  0  0  0  0  0  0  0  0  0  0
   -7.6314   -0.1674    0.4935 C   0  0  0  0  0  0  0  0  0  0  0  0
   -6.6130    0.4520   -0.1273 N   0  0  0  0  0  0  0  0  0  0  0  0
   -6.6321    1.8032   -0.2263 C   0  0  0  0  0  0  0  0  0  0  0  0
   -3.3300    1.4539   -0.6629 C   0  0  0  0  0  0  0  0  0  0  0  0
   -2.2392    0.7480   -1.1990 C   0  0  0  0  0  0  0  0  0  0  0  0
   -1.1089    0.4472   -0.4212 C   0  0  0  0  0  0  0  0  0  0  0  0
   -0.0180   -0.2578   -0.9560 C   0  0  0  0  0  0  0  0  0  0  0  0
    1.1119   -0.5594   -0.1773 C   0  0  0  0  0  0  0  0  0  0  0  0
    2.2032   -1.2638   -0.7118 C   0  0  0  0  0  0  0  0  0  0  0  0
    3.3329   -1.5672    0.0675 C   0  0  0  0  0  0  0  0  0  0  0  0
   11.6241    5.0155   -0.3387 H   0  0  0  0  0  0  0  0  0  0  0  0
    9.6618    5.5822   -1.7463 H   0  0  0  0  0  0  0  0  0  0  0  0
    7.7820    4.0001   -1.9496 H   0  0  0  0  0  0  0  0  0  0  0  0
    6.7385    1.8115   -1.3582 H   0  0  0  0  0  0  0  0  0  0  0  0
   10.6479    0.6830    1.4456 H   0  0  0  0  0  0  0  0  0  0  0  0
   11.7074    2.8663    0.8659 H   0  0  0  0  0  0  0  0  0  0  0  0
    8.7090   -3.3788    2.5379 H   0  0  0  0  0  0  0  0  0  0  0  0
    7.7682   -5.5414    3.1777 H   0  0  0  0  0  0  0  0  0  0  0  0
    5.9582   -7.2046    3.0676 H   0  0  0  0  0  0  0  0  0  0  0  0
    3.9383   -6.7522    1.6987 H   0  0  0  0  0  0  0  0  0  0  0  0
    3.7329   -4.6602    0.4535 H   0  0  0  0  0  0  0  0  0  0  0  0
    5.2080   -3.2035   -2.2541 H   0  0  0  0  0  0  0  0  0  0  0  0
    3.2486   -2.6922   -3.6370 H   0  0  0  0  0  0  0  0  0  0  0  0
    1.0040   -1.6941   -3.8777 H   0  0  0  0  0  0  0  0  0  0  0  0
   -1.2199   -0.6935   -4.1199 H   0  0  0  0  0  0  0  0  0  0  0  0
   -3.4658    0.3121   -4.3609 H   0  0  0  0  0  0  0  0  0  0  0  0
   -5.3546    1.5423   -3.3970 H   0  0  0  0  0  0  0  0  0  0  0  0
   -3.7498    4.2431   -2.0265 H   0  0  0  0  0  0  0  0  0  0  0  0
   -3.9101    6.6799   -2.1283 H   0  0  0  0  0  0  0  0  0  0  0  0
   -5.8591    7.8514   -1.1348 H   0  0  0  0  0  0  0  0  0  0  0  0
   -7.6435    6.5595   -0.0386 H   0  0  0  0  0  0  0  0  0  0  0  0
   -8.5953    4.4214    0.6620 H   0  0  0  0  0  0  0  0  0  0  0  0
  -10.5567    0.4740    2.0774 H   0  0  0  0  0  0  0  0  0  0  0  0
  -11.6274   -1.6449    2.8506 H   0  0  0  0  0  0  0  0  0  0  0  0
  -11.5860   -4.1030    3.0330 H   0  0  0  0  0  0  0  0  0  0  0  0
   -9.6925   -5.3934    2.0818 H   0  0  0  0  0  0  0  0  0  0  0  0
   -7.8403   -4.2258    0.9485 H   0  0  0  0  0  0  0  0  0  0  0  0
   -6.7874   -2.0971    0.1811 H   0  0  0  0  0  0  0  0  0  0  0  0
   -3.3062    1.7735    0.3776 H   0  0  0  0  0  0  0  0  0  0  0  0
   -1.0805    0.7657    0.6194 H   0  0  0  0  0  0  0  0  0  0  0  0
    1.1432   -0.2386    0.8626 H   0  0  0  0  0  0  0  0  0  0  0  0
    3.3726   -1.2486    1.1079 H   0  0  0  0  0  0  0  0  0  0  0  0
  1  2  4  0
  2  3  4  0
  3  4  4  0
  4  5  4  0
  5  6  4  0
  6  7  4  0
  7  8  4  0
  8  9  4  0
  9 10  4  0
 10 11  4  0
 11 12  4  0
 12 13  4  0
 13 14  4  0
  9 15  4  0
 15 16  4  0
 16 17  4  0
 17 18  4  0
 18 19  4  0
 19 20  4  0
 20 21  4  0
 21 22  4  0
 22 23  1  0
 23 24  4  0
 24 25  4  0
 25 26  4  0
 26 27  4  0
 27 28  4  0
 28 29  4  0
 29 30  4  0
 30 31  4  0
 31 32  4  0
 32 33  4  0
 33 34  1  0
 34 35  4  0
 35 36  4  0
 36 37  4  0
 37 38  4  0
 38 39  4  0
 39 40  4  0
 40 41  4  0
 41 42  4  0
 42 43  4  0
 43 44  4  0
 44 45  4  0
 45 46  4  0
 46 47  4  0
 47 48  4  0
 48 49  4  0
 49 50  4  0
 50 51  4  0
 51 52  4  0
 52 53  4  0
 53 54  4  0
 54 55  4  0
 33 56  4  0
 56 57  4  0
 57 58  4  0
 58 59  4  0
 59 60  4  0
 60 61  4  0
 61 62  4  0
 14  1  4  0
 21 16  4  0
 62 23  4  0
 13  4  4  0
 61 26  4  0
 11  6  4  0
 59 28  4  0
 22  8  4  0
 57 30  4  0
 55 34  4  0
 40 35  4  0
 55 42  4  0
 53 44  4  0
 51 46  4  0
  1 63  1  0
  2 64  1  0
  3 65  1  0
  5 66  1  0
 12 67  1  0
 14 68  1  0
 15 69  1  0
 17 70  1  0
 18 71  1  0
 19 72  1  0
 20 73  1  0
 24 74  1  0
 25 75  1  0
 27 76  1  0
 29 77  1  0
 31 78  1  0
 32 79  1  0
 36 80  1  0
 37 81  1  0
 38 82  1  0
 39 83  1  0
 41 84  1  0
 45 85  1  0
 47 86  1  0
 48 87  1  0
 49 88  1  0
 50 89  1  0
 52 90  1  0
 56 91  1  0
 58 92  1  0
 60 93  1  0
 62 94  1  0
M  END
