
     RDKit          3D

 94107  0  0  0  0  0  0  0  0999 V2000
    7.6943    2.0998    5.7972 C   0  0  0  0  0  0  0  0  0  0  0  0
    6.6066    1.2386    5.7986 C   0  0  0  0  0  0  0  0  0  0  0  0
    6.0568    0.8123    4.5876 C   0  0  0  0  0  0  0  0  0  0  0  0
    6.5781    1.2341    3.3393 C   0  0  0  0  0  0  0  0  0  0  0  0
    7.6830    2.1105    3.3615 C   0  0  0  0  0  0  0  0  0  0  0  0
    8.2289    2.5331    4.5858 C   0  0  0  0  0  0  0  0  0  0  0  0
    8.2315    2.5561    2.1548 C   0  0  0  0  0  0  0  0  0  0  0  0
    7.7253    2.1667    0.9268 C   0  0  0  0  0  0  0  0  0  0  0  0
    8.3152    2.6459   -0.1837 N   0  0  0  0  0  0  0  0  0  0  0  0
    7.8177    2.2634   -1.3722 C   0  0  0  0  0  0  0  0  0  0  0  0
    8.3950    2.7330   -2.5455 C   0  0  0  0  0  0  0  0  0  0  0  0
    7.9087    2.3606   -3.8079 C   0  0  0  0  0  0  0  0  0  0  0  0
    8.4927    2.8359   -4.9934 C   0  0  0  0  0  0  0  0  0  0  0  0
    7.9915    2.4512   -6.2379 C   0  0  0  0  0  0  0  0  0  0  0  0
    6.9020    1.5882   -6.3120 C   0  0  0  0  0  0  0  0  0  0  0  0
    6.3116    1.1083   -5.1420 C   0  0  0  0  0  0  0  0  0  0  0  0
    6.8058    1.4871   -3.8832 C   0  0  0  0  0  0  0  0  0  0  0  0
    6.2293    1.0180   -2.6937 C   0  0  0  0  0  0  0  0  0  0  0  0
    6.7176    1.3919   -1.4486 C   0  0  0  0  0  0  0  0  0  0  0  0
    6.1333    0.9165   -0.3363 N   0  0  0  0  0  0  0  0  0  0  0  0
    6.6222    1.2917    0.8701 C   0  0  0  0  0  0  0  0  0  0  0  0
    6.0517    0.8257    2.0749 C   0  0  0  0  0  0  0  0  0  0  0  0
    4.8980   -0.0964    2.0063 C   0  0  0  0  0  0  0  0  0  0  0  0
    5.0917   -1.4834    1.9952 C   0  0  0  0  0  0  0  0  0  0  0  0
    4.0009   -2.3539    1.9379 C   0  0  0  0  0  0  0  0  0  0  0  0
    2.6896   -1.8578    1.8880 C   0  0  0  0  0  0  0  0  0  0  0  0
    1.5835   -2.7208    1.8279 C   0  0  0  0  0  0  0  0  0  0  0  0
    0.2700   -2.2257    1.7733 C   0  0  0  0  0  0  0  0  0  0  0  0
   -0.8352   -3.0905    1.7114 C   0  0  0  0  0  0  0  0  0  0  0  0
   -2.1489   -2.5973    1.6542 C   0  0  0  0  0  0  0  0  0  0  0  0
   -3.2524   -3.4614    1.5892 C   0  0  0  0  0  0  0  0  0  0  0  0
   -4.5531   -2.9555    1.5299 C   0  0  0  0  0  0  0  0  0  0  0  0
   -4.7824   -1.5740    1.5352 C   0  0  0  0  0  0  0  0  0  0  0  0
   -6.1588   -1.0371    1.4758 C   0  0  0  0  0  0  0  0  0  0  0  0
   -6.7390   -0.7945    0.2115 C   0  0  0  0  0  0  0  0  0  0  0  0
   -6.0630   -1.0412   -0.9364 N   0  0  0  0  0  0  0  0  0  0  0  0
   -6.6654   -0.7888   -2.1102 C   0  0  0  0  0  0  0  0  0  0  0  0
   -5.9872   -1.0342   -3.2970 C   0  0  0  0  0  0  0  0  0  0  0  0
   -6.5741   -0.7863   -4.5468 C   0  0  0  0  0  0  0  0  0  0  0  0
   -5.8879   -1.0342   -5.7468 C   0  0  0  0  0  0  0  0  0  0  0  0
   -6.4930   -0.7793   -6.9783 C   0  0  0  0  0  0  0  0  0  0  0  0
   -7.7891   -0.2743   -7.0249 C   0  0  0  0  0  0  0  0  0  0  0  0
   -8.4826   -0.0233   -5.8401 C   0  0  0  0  0  0  0  0  0  0  0  0
   -7.8861   -0.2752   -4.5939 C   0  0  0  0  0  0  0  0  0  0  0  0
   -8.5633   -0.0309   -3.3896 C   0  0  0  0  0  0  0  0  0  0  0  0
   -7.9743   -0.2789   -2.1562 C   0  0  0  0  0  0  0  0  0  0  0  0
   -8.6595   -0.0290   -1.0273 N   0  0  0  0  0  0  0  0  0  0  0  0
   -8.0502   -0.2829    0.1452 C   0  0  0  0  0  0  0  0  0  0  0  0
   -8.7481   -0.0268    1.3126 C   0  0  0  0  0  0  0  0  0  0  0  0
   -8.1958   -0.2579    2.5763 C   0  0  0  0  0  0  0  0  0  0  0  0
   -8.9414    0.0180    3.7355 C   0  0  0  0  0  0  0  0  0  0  0  0
   -8.4063   -0.2052    5.0023 C   0  0  0  0  0  0  0  0  0  0  0  0
   -7.1188   -0.7076    5.1247 C   0  0  0  0  0  0  0  0  0  0  0  0
   -6.3698   -0.9861    3.9793 C   0  0  0  0  0  0  0  0  0  0  0  0
   -6.8851   -0.7694    2.6772 C   0  0  0  0  0  0  0  0  0  0  0  0
   -3.6775   -0.7091    1.5972 C   0  0  0  0  0  0  0  0  0  0  0  0
   -2.3632   -1.2037    1.6579 C   0  0  0  0  0  0  0  0  0  0  0  0
   -1.2574   -0.3396    1.7196 C   0  0  0  0  0  0  0  0  0  0  0  0
    0.0570   -0.8335    1.7783 C   0  0  0  0  0  0  0  0  0  0  0  0
    1.1636    0.0305    1.8396 C   0  0  0  0  0  0  0  0  0  0  0  0
    2.4777   -0.4638    1.8945 C   0  0  0  0  0  0  0  0  0  0  0  0
    3.5852    0.4000    1.9533 C   0  0  0  0  0  0  0  0  0  0  0  0
    8.1271    2.4351    6.7359 H   0  0  0  0  0  0  0  0  0  0  0  0
    6.1814    0.8951    6.7382 H   0  0  0  0  0  0  0  0  0  0  0  0
    5.2033    0.1374    4.6304 H   0  0  0  0  0  0  0  0  0  0  0  0
    9.0820    3.2089    4.6050 H   0  0  0  0  0  0  0  0  0  0  0  0
    9.0848    3.2324    2.1611 H   0  0  0  0  0  0  0  0  0  0  0  0
    9.2454    3.4065   -2.4644 H   0  0  0  0  0  0  0  0  0  0  0  0
    9.3446    3.5115   -4.9551 H   0  0  0  0  0  0  0  0  0  0  0  0
    8.4520    2.8259   -7.1485 H   0  0  0  0  0  0  0  0  0  0  0  0
    6.5102    1.2879   -7.2805 H   0  0  0  0  0  0  0  0  0  0  0  0
    5.4605    0.4349   -5.2199 H   0  0  0  0  0  0  0  0  0  0  0  0
    5.3766    0.3428   -2.7270 H   0  0  0  0  0  0  0  0  0  0  0  0
    6.0988   -1.8940    2.0253 H   0  0  0  0  0  0  0  0  0  0  0  0
    4.1867   -3.4255    1.9266 H   0  0  0  0  0  0  0  0  0  0  0  0
    1.7476   -3.7966    1.8212 H   0  0  0  0  0  0  0  0  0  0  0  0
   -0.6701   -4.1664    1.7052 H   0  0  0  0  0  0  0  0  0  0  0  0
   -3.1095   -4.5395    1.5781 H   0  0  0  0  0  0  0  0  0  0  0  0
   -5.3908   -3.6472    1.4708 H   0  0  0  0  0  0  0  0  0  0  0  0
   -4.9750   -1.4287   -3.2356 H   0  0  0  0  0  0  0  0  0  0  0  0
   -4.8739   -1.4288   -5.7302 H   0  0  0  0  0  0  0  0  0  0  0  0
   -5.9515   -0.9753   -7.9003 H   0  0  0  0  0  0  0  0  0  0  0  0
   -8.2615   -0.0752   -7.9835 H   0  0  0  0  0  0  0  0  0  0  0  0
   -9.4949    0.3714   -5.8964 H   0  0  0  0  0  0  0  0  0  0  0  0
   -9.5770    0.3634   -3.4030 H   0  0  0  0  0  0  0  0  0  0  0  0
   -9.7589    0.3681    1.2238 H   0  0  0  0  0  0  0  0  0  0  0  0
   -9.9531    0.4127    3.6589 H   0  0  0  0  0  0  0  0  0  0  0  0
   -8.9947    0.0134    5.8896 H   0  0  0  0  0  0  0  0  0  0  0  0
   -6.6913   -0.8849    6.1083 H   0  0  0  0  0  0  0  0  0  0  0  0
   -5.3639   -1.3798    4.1172 H   0  0  0  0  0  0  0  0  0  0  0  0
   -3.8494    0.3660    1.5908 H   0  0  0  0  0  0  0  0  0  0  0  0
   -1.4227    0.7364    1.7179 H   0  0  0  0  0  0  0  0  0  0  0  0
    0.9993    1.1067    1.8418 H   0  0  0  0  0  0  0  0  0  0  0  0
    3.4306    1.4778    1.9511 H   0  0  0  0  0  0  0  0  0  0  0  0
  1  2  4  0
  2  3  4  0
  3  4  4  0
  4  5  4  0
  5  6  4  0
  5  7  4  0
  7  8  4  0
  8  9  4  0
  9 10  4  0
 10 11  4  0
 11 12  4  0
 12 13  4  0
 13 14  4  0
 14 15  4  0
 15 16  4  0
 16 17  4  0
 17 18  4  0
 18 19  4  0
 19 20  4  0
 20 21  4  0
 21 22  4  0
 22 23  1  0
 23 24  4  0
 24 25  4  0
 25 26  4  0
 26 27  4  0
 27 28  4  0
 28 29  4  0
 29 30  4  0
 30 31  4  0
 31 32  4  0
 32 33  4  0
 33 34  1  0
 34 35  4  0
 35 36  4  0
 36 37  4  0
 37 38  4  0
 38 39  4  0
 39 40  4  0
 40 41  4  0
 41 42  4  0
 42 43  4  0
 43 44  4  0
 44 45  4  0
 45 46  4  0
 46 47  4  0
 47 48  4  0
 48 49  4  0
 49 50  4  0
 50 51  4  0
 51 52  4  0
 52 53  4  0
 53 54  4  0
 54 55  4  0
 33 56  4  0
 56 57  4  0
 57 58  4  0
 58 59  4  0
 59 60  4  0
 60 61  4  0
 61 62  4  0
  6  1  4  0
 21  8  4  0
 62 23  4  0
 22  4  4  0
 61 26  4  0
 19 10  4  0
 59 28  4  0
 17 12  4  0
 57 30  4  0
 55 34  4  0
 48 35  4  0
 55 50  4  0
 46 37  4  0
 44 39  4  0
  1 63  1  0
  2 64  1  0
  3 65  1  0
  6 66  1  0
  7 67  1  0
 11 68  1  0
 13 69  1  0
 14 70  1  0
 15 71  1  0
 16 72  1  0
 18 73  1  0
 24 74  1  0
 25 75  1  0
 27 76  1  0
 29 77  1  0
 31 78  1  0
 32 79  1  0
 38 80  1  0
 40 81  1  0
 41 82  1  0
 42 83  1  0
 43 84  1  0
 45 85  1  0
 49 86  1  0
 51 87  1  0
 52 88  1  0
 53 89  1  0
 54 90  1  0
 56 91  1  0
 58 92  1  0
 60 93  1  0
 62 94  1  0
M  END
