
     RDKit          3D

 94107  0  0  0  0  0  0  0  0999 V2000
   17.6645   -1.2315   -2.1996 C   0  0  0  0  0  0  0  0  0  0  0  0
   17.5860    0.1562   -2.2716 C   0  0  0  0  0  0  0  0  0  0  0  0
   16.3947    0.8050   -1.9442 C   0  0  0  0  0  0  0  0  0  0  0  0
   15.2670    0.0715   -1.5406 C   0  0  0  0  0  0  0  0  0  0  0  0
   14.0589    0.7020   -1.2067 C   0  0  0  0  0  0  0  0  0  0  0  0
   12.9422   -0.0208   -0.8073 C   0  0  0  0  0  0  0  0  0  0  0  0
   11.8067    0.6311   -0.4976 N   0  0  0  0  0  0  0  0  0  0  0  0
   10.7499   -0.1082   -0.1157 C   0  0  0  0  0  0  0  0  0  0  0  0
    9.5572    0.5226    0.2138 C   0  0  0  0  0  0  0  0  0  0  0  0
    8.4251   -0.2003    0.6201 C   0  0  0  0  0  0  0  0  0  0  0  0
    7.2189    0.4417    0.9545 C   0  0  0  0  0  0  0  0  0  0  0  0
    6.0855   -0.2833    1.3605 C   0  0  0  0  0  0  0  0  0  0  0  0
    4.8319    0.4040    1.7098 C   0  0  0  0  0  0  0  0  0  0  0  0
    4.8089    1.4104    2.6848 C   0  0  0  0  0  0  0  0  0  0  0  0
    3.6179    2.0623    3.0184 C   0  0  0  0  0  0  0  0  0  0  0  0
    2.4143    1.7254    2.3834 C   0  0  0  0  0  0  0  0  0  0  0  0
    1.2097    2.3705    2.7076 C   0  0  0  0  0  0  0  0  0  0  0  0
    0.0035    2.0336    2.0704 C   0  0  0  0  0  0  0  0  0  0  0  0
   -1.2021    2.6783    2.3951 C   0  0  0  0  0  0  0  0  0  0  0  0
   -2.4075    2.3414    1.7575 C   0  0  0  0  0  0  0  0  0  0  0  0
   -3.6111    2.9830    2.0819 C   0  0  0  0  0  0  0  0  0  0  0  0
   -4.8021    2.6364    1.4378 C   0  0  0  0  0  0  0  0  0  0  0  0
   -4.8260    1.6409    0.4518 C   0  0  0  0  0  0  0  0  0  0  0  0
   -6.0807    1.2774   -0.2253 C   0  0  0  0  0  0  0  0  0  0  0  0
   -7.2129    0.8902    0.5116 C   0  0  0  0  0  0  0  0  0  0  0  0
   -8.4216    0.5455   -0.1192 C   0  0  0  0  0  0  0  0  0  0  0  0
   -9.5523    0.1598    0.6166 C   0  0  0  0  0  0  0  0  0  0  0  0
  -10.7484   -0.1785   -0.0025 C   0  0  0  0  0  0  0  0  0  0  0  0
  -11.8041   -0.5391    0.7489 N   0  0  0  0  0  0  0  0  0  0  0  0
  -12.9432   -0.8580    0.1080 C   0  0  0  0  0  0  0  0  0  0  0  0
  -14.0592   -1.2364    0.8432 C   0  0  0  0  0  0  0  0  0  0  0  0
  -15.2710   -1.5787    0.2243 C   0  0  0  0  0  0  0  0  0  0  0  0
  -16.3982   -1.9611    0.9699 C   0  0  0  0  0  0  0  0  0  0  0  0
  -17.5931   -2.2973    0.3320 C   0  0  0  0  0  0  0  0  0  0  0  0
  -17.6754   -2.2554   -1.0566 C   0  0  0  0  0  0  0  0  0  0  0  0
  -16.5632   -1.8772   -1.8100 C   0  0  0  0  0  0  0  0  0  0  0  0
  -15.3544   -1.5362   -1.1813 C   0  0  0  0  0  0  0  0  0  0  0  0
  -14.2233   -1.1531   -1.9179 C   0  0  0  0  0  0  0  0  0  0  0  0
  -13.0268   -0.8155   -1.2990 C   0  0  0  0  0  0  0  0  0  0  0  0
  -11.9705   -0.4546   -2.0503 N   0  0  0  0  0  0  0  0  0  0  0  0
  -10.8317   -0.1358   -1.4092 C   0  0  0  0  0  0  0  0  0  0  0  0
   -9.7153    0.2433   -2.1434 C   0  0  0  0  0  0  0  0  0  0  0  0
   -8.5047    0.5869   -1.5228 C   0  0  0  0  0  0  0  0  0  0  0  0
   -7.3784    0.9704   -2.2647 C   0  0  0  0  0  0  0  0  0  0  0  0
   -6.1838    1.3104   -1.6229 C   0  0  0  0  0  0  0  0  0  0  0  0
   -3.6169    1.0008    0.1304 C   0  0  0  0  0  0  0  0  0  0  0  0
   -2.4090    1.3365    0.7695 C   0  0  0  0  0  0  0  0  0  0  0  0
   -1.2032    0.6917    0.4464 C   0  0  0  0  0  0  0  0  0  0  0  0
    0.0030    1.0277    1.0848 C   0  0  0  0  0  0  0  0  0  0  0  0
    1.2087    0.3819    0.7612 C   0  0  0  0  0  0  0  0  0  0  0  0
    2.4150    0.7173    1.3989 C   0  0  0  0  0  0  0  0  0  0  0  0
    3.6224    0.0706    1.0764 C   0  0  0  0  0  0  0  0  0  0  0  0
    6.1855   -1.6800    1.4248 C   0  0  0  0  0  0  0  0  0  0  0  0
    7.3774   -2.3327    1.0962 C   0  0  0  0  0  0  0  0  0  0  0  0
    8.5042   -1.6029    0.6923 C   0  0  0  0  0  0  0  0  0  0  0  0
    9.7115   -2.2352    0.3579 C   0  0  0  0  0  0  0  0  0  0  0  0
   10.8288   -1.5140   -0.0424 C   0  0  0  0  0  0  0  0  0  0  0  0
   11.9642   -2.1662   -0.3525 N   0  0  0  0  0  0  0  0  0  0  0  0
   13.0215   -1.4268   -0.7344 C   0  0  0  0  0  0  0  0  0  0  0  0
   14.2144   -2.0572   -1.0635 C   0  0  0  0  0  0  0  0  0  0  0  0
   15.3463   -1.3331   -1.4678 C   0  0  0  0  0  0  0  0  0  0  0  0
   16.5517   -1.9730   -1.8001 C   0  0  0  0  0  0  0  0  0  0  0  0
   18.5919   -1.7382   -2.4544 H   0  0  0  0  0  0  0  0  0  0  0  0
   18.4521    0.7349   -2.5826 H   0  0  0  0  0  0  0  0  0  0  0  0
   16.3525    1.8905   -2.0064 H   0  0  0  0  0  0  0  0  0  0  0  0
   13.9767    1.7856   -1.2564 H   0  0  0  0  0  0  0  0  0  0  0  0
    9.5180    1.6080    0.1496 H   0  0  0  0  0  0  0  0  0  0  0  0
    7.1558    1.5274    0.8874 H   0  0  0  0  0  0  0  0  0  0  0  0
    5.7231    1.6888    3.2056 H   0  0  0  0  0  0  0  0  0  0  0  0
    3.6402    2.8358    3.7830 H   0  0  0  0  0  0  0  0  0  0  0  0
    1.2103    3.1482    3.4694 H   0  0  0  0  0  0  0  0  0  0  0  0
   -1.2011    3.4557    3.1573 H   0  0  0  0  0  0  0  0  0  0  0  0
   -3.6340    3.7628    2.8397 H   0  0  0  0  0  0  0  0  0  0  0  0
   -5.7159    3.1632    1.7065 H   0  0  0  0  0  0  0  0  0  0  0  0
   -7.1475    0.8472    1.5983 H   0  0  0  0  0  0  0  0  0  0  0  0
   -9.5097    0.1198    1.7031 H   0  0  0  0  0  0  0  0  0  0  0  0
  -13.9735   -1.2627    1.9274 H   0  0  0  0  0  0  0  0  0  0  0  0
  -16.3532   -1.9998    2.0564 H   0  0  0  0  0  0  0  0  0  0  0  0
  -18.4587   -2.5917    0.9201 H   0  0  0  0  0  0  0  0  0  0  0  0
  -18.6053   -2.5169   -1.5550 H   0  0  0  0  0  0  0  0  0  0  0  0
  -16.6471   -1.8505   -2.8945 H   0  0  0  0  0  0  0  0  0  0  0  0
  -14.2672   -1.1142   -3.0043 H   0  0  0  0  0  0  0  0  0  0  0  0
   -9.8001    0.2696   -3.2277 H   0  0  0  0  0  0  0  0  0  0  0  0
   -7.4209    1.0125   -3.3512 H   0  0  0  0  0  0  0  0  0  0  0  0
   -5.3315    1.6168   -2.2268 H   0  0  0  0  0  0  0  0  0  0  0  0
   -3.6188    0.2163   -0.6250 H   0  0  0  0  0  0  0  0  0  0  0  0
   -1.2017   -0.0856   -0.3158 H   0  0  0  0  0  0  0  0  0  0  0  0
    1.2064   -0.3960   -0.0003 H   0  0  0  0  0  0  0  0  0  0  0  0
    3.6236   -0.7010    0.3077 H   0  0  0  0  0  0  0  0  0  0  0  0
    5.3325   -2.2748    1.7467 H   0  0  0  0  0  0  0  0  0  0  0  0
    7.4168   -3.4181    1.1625 H   0  0  0  0  0  0  0  0  0  0  0  0
    9.7923   -3.3190    0.4079 H   0  0  0  0  0  0  0  0  0  0  0  0
   14.2545   -3.1425   -1.0006 H   0  0  0  0  0  0  0  0  0  0  0  0
   16.6325   -3.0569   -1.7501 H   0  0  0  0  0  0  0  0  0  0  0  0
  1  2  4  0
  2  3  4  0
  3  4  4  0
  4  5  4  0
  5  6  4  0
  6  7  4  0
  7  8  4  0
  8  9  4  0
  9 10  4  0
 10 11  4  0
 11 12  4  0
 12 13  1  0
 13 14  4  0
 14 15  4  0
 15 16  4  0
 16 17  4  0
 17 18  4  0
 18 19  4  0
 19 20  4  0
 20 21  4  0
 21 22  4  0
 22 23  4  0
 23 24  1  0
 24 25  4  0
 25 26  4  0
 26 27  4  0
 27 28  4  0
 28 29  4  0
 29 30  4  0
 30 31  4  0
 31 32  4  0
 32 33  4  0
 33 34  4  0
 34 35  4  0
 35 36  4  0
 36 37  4  0
 37 38  4  0
 38 39  4  0
 39 40  4  0
 40 41  4  0
 41 42  4  0
 42 43  4  0
 43 44  4  0
 44 45  4  0
 23 46  4  0
 46 47  4  0
 47 48  4  0
 48 49  4  0
 49 50  4  0
 50 51  4  0
 51 52  4  0
 12 53  4  0
 53 54  4  0
 54 55  4  0
 55 56  4  0
 56 57  4  0
 57 58  4  0
 58 59  4  0
 59 60  4  0
 60 61  4  0
 61 62  4  0
 62  1  4  0
 61  4  4  0
 59  6  4  0
 57  8  4  0
 55 10  4  0
 52 13  4  0
 51 16  4  0
 49 18  4  0
 47 20  4  0
 45 24  4  0
 43 26  4  0
 41 28  4  0
 39 30  4  0
 37 32  4  0
  1 63  1  0
  2 64  1  0
  3 65  1  0
  5 66  1  0
  9 67  1  0
 11 68  1  0
 14 69  1  0
 15 70  1  0
 17 71  1  0
 19 72  1  0
 21 73  1  0
 22 74  1  0
 25 75  1  0
 27 76  1  0
 31 77  1  0
 33 78  1  0
 34 79  1  0
 35 80  1  0
 36 81  1  0
 38 82  1  0
 42 83  1  0
 44 84  1  0
 45 85  1  0
 46 86  1  0
 48 87  1  0
 50 88  1  0
 52 89  1  0
 53 90  1  0
 54 91  1  0
 56 92  1  0
 60 93  1  0
 62 94  1  0
M  END
