
     RDKit          3D

 90103  0  0  0  0  0  0  0  0999 V2000
   11.4888    6.0919    2.5364 C   0  0  0  0  0  0  0  0  0  0  0  0
   11.6514    4.7059    2.5563 C   0  0  0  0  0  0  0  0  0  0  0  0
   10.6815    3.8555    2.0382 C   0  0  0  0  0  0  0  0  0  0  0  0
   10.8732    2.5238    2.0748 N   0  0  0  0  0  0  0  0  0  0  0  0
    9.9070    1.7429    1.5614 C   0  0  0  0  0  0  0  0  0  0  0  0
   10.0588    0.3654    1.5727 C   0  0  0  0  0  0  0  0  0  0  0  0
    9.0943   -0.4820    1.0508 C   0  0  0  0  0  0  0  0  0  0  0  0
    9.2845   -1.8112    1.0755 N   0  0  0  0  0  0  0  0  0  0  0  0
    8.3231   -2.5930    0.5498 C   0  0  0  0  0  0  0  0  0  0  0  0
    8.5133   -3.9664    0.5703 C   0  0  0  0  0  0  0  0  0  0  0  0
    7.5679   -4.8371    0.0407 C   0  0  0  0  0  0  0  0  0  0  0  0
    6.4078   -4.3199   -0.5205 C   0  0  0  0  0  0  0  0  0  0  0  0
    6.1769   -2.9300   -0.5563 C   0  0  0  0  0  0  0  0  0  0  0  0
    4.9262   -2.4299   -1.1728 C   0  0  0  0  0  0  0  0  0  0  0  0
    4.9543   -1.4899   -2.2123 C   0  0  0  0  0  0  0  0  0  0  0  0
    3.7742   -1.0277   -2.8022 C   0  0  0  0  0  0  0  0  0  0  0  0
    2.5260   -1.5002   -2.3744 C   0  0  0  0  0  0  0  0  0  0  0  0
    1.3317   -1.0494   -2.9606 C   0  0  0  0  0  0  0  0  0  0  0  0
    0.0804   -1.5250   -2.5334 C   0  0  0  0  0  0  0  0  0  0  0  0
   -1.1141   -1.0762   -3.1221 C   0  0  0  0  0  0  0  0  0  0  0  0
   -2.3648   -1.5509   -2.6942 C   0  0  0  0  0  0  0  0  0  0  0  0
   -3.5566   -1.1004   -3.2791 C   0  0  0  0  0  0  0  0  0  0  0  0
   -4.7942   -1.5817   -2.8420 C   0  0  0  0  0  0  0  0  0  0  0  0
   -4.8768   -2.5261   -1.8104 C   0  0  0  0  0  0  0  0  0  0  0  0
   -6.1805   -3.0562   -1.3610 C   0  0  0  0  0  0  0  0  0  0  0  0
   -7.1724   -2.2180   -0.8078 C   0  0  0  0  0  0  0  0  0  0  0  0
   -6.9789   -0.8853   -0.6562 N   0  0  0  0  0  0  0  0  0  0  0  0
   -7.9608   -0.1464   -0.1137 C   0  0  0  0  0  0  0  0  0  0  0  0
   -7.7841    1.2178    0.0543 C   0  0  0  0  0  0  0  0  0  0  0  0
   -8.7675    2.0215    0.6086 C   0  0  0  0  0  0  0  0  0  0  0  0
   -8.5490    3.3405    0.7503 N   0  0  0  0  0  0  0  0  0  0  0  0
   -9.5331    4.0799    1.2947 C   0  0  0  0  0  0  0  0  0  0  0  0
   -9.3547    5.4481    1.4629 C   0  0  0  0  0  0  0  0  0  0  0  0
  -10.3520    6.2473    2.0235 C   0  0  0  0  0  0  0  0  0  0  0  0
  -11.5490    5.6678    2.4229 C   0  0  0  0  0  0  0  0  0  0  0  0
  -11.7375    4.2949    2.2581 C   0  0  0  0  0  0  0  0  0  0  0  0
  -10.7502    3.4907    1.7009 C   0  0  0  0  0  0  0  0  0  0  0  0
  -10.9669    2.1700    1.5573 N   0  0  0  0  0  0  0  0  0  0  0  0
   -9.9815    1.4340    1.0133 C   0  0  0  0  0  0  0  0  0  0  0  0
  -10.1559    0.0697    0.8438 C   0  0  0  0  0  0  0  0  0  0  0  0
   -9.1711   -0.7325    0.2889 C   0  0  0  0  0  0  0  0  0  0  0  0
   -9.3841   -2.0505    0.1445 N   0  0  0  0  0  0  0  0  0  0  0  0
   -8.3986   -2.7909   -0.3950 C   0  0  0  0  0  0  0  0  0  0  0  0
   -8.6092   -4.1543   -0.5407 C   0  0  0  0  0  0  0  0  0  0  0  0
   -7.6368   -4.9848   -1.0864 C   0  0  0  0  0  0  0  0  0  0  0  0
   -6.4284   -4.4370   -1.4937 C   0  0  0  0  0  0  0  0  0  0  0  0
   -3.6786   -2.9731   -1.2260 C   0  0  0  0  0  0  0  0  0  0  0  0
   -2.4250   -2.4984   -1.6533 C   0  0  0  0  0  0  0  0  0  0  0  0
   -1.2303   -2.9469   -1.0652 C   0  0  0  0  0  0  0  0  0  0  0  0
    0.0222   -2.4715   -1.4920 C   0  0  0  0  0  0  0  0  0  0  0  0
    1.2181   -2.9186   -0.9031 C   0  0  0  0  0  0  0  0  0  0  0  0
    2.4705   -2.4464   -1.3323 C   0  0  0  0  0  0  0  0  0  0  0  0
    3.6690   -2.8956   -0.7451 C   0  0  0  0  0  0  0  0  0  0  0  0
    7.1435   -2.0528   -0.0159 C   0  0  0  0  0  0  0  0  0  0  0  0
    6.9702   -0.7090   -0.0235 N   0  0  0  0  0  0  0  0  0  0  0  0
    7.9290    0.0718    0.4985 C   0  0  0  0  0  0  0  0  0  0  0  0
    7.7729    1.4482    0.4893 C   0  0  0  0  0  0  0  0  0  0  0  0
    8.7375    2.2969    1.0066 C   0  0  0  0  0  0  0  0  0  0  0  0
    8.5440    3.6268    0.9685 N   0  0  0  0  0  0  0  0  0  0  0  0
    9.5092    4.4109    1.4813 C   0  0  0  0  0  0  0  0  0  0  0  0
    9.3561    5.7924    1.4657 C   0  0  0  0  0  0  0  0  0  0  0  0
   10.3356    6.6379    1.9884 C   0  0  0  0  0  0  0  0  0  0  0  0
   12.2611    6.7373    2.9475 H   0  0  0  0  0  0  0  0  0  0  0  0
   12.5539    4.2765    2.9849 H   0  0  0  0  0  0  0  0  0  0  0  0
   10.9620   -0.0625    2.0004 H   0  0  0  0  0  0  0  0  0  0  0  0
    9.4251   -4.3663    1.0086 H   0  0  0  0  0  0  0  0  0  0  0  0
    7.7388   -5.9104    0.0611 H   0  0  0  0  0  0  0  0  0  0  0  0
    5.6794   -5.0065   -0.9491 H   0  0  0  0  0  0  0  0  0  0  0  0
    5.9053   -1.0989   -2.5700 H   0  0  0  0  0  0  0  0  0  0  0  0
    3.8449   -0.2906   -3.5990 H   0  0  0  0  0  0  0  0  0  0  0  0
    1.3776   -0.3144   -3.7622 H   0  0  0  0  0  0  0  0  0  0  0  0
   -1.0708   -0.3444   -3.9268 H   0  0  0  0  0  0  0  0  0  0  0  0
   -3.5334   -0.3642   -4.0794 H   0  0  0  0  0  0  0  0  0  0  0  0
   -5.7010   -1.2076   -3.3134 H   0  0  0  0  0  0  0  0  0  0  0  0
   -6.8454    1.6697   -0.2571 H   0  0  0  0  0  0  0  0  0  0  0  0
   -8.4163    5.8991    1.1493 H   0  0  0  0  0  0  0  0  0  0  0  0
  -10.1904    7.3155    2.1455 H   0  0  0  0  0  0  0  0  0  0  0  0
  -12.3355    6.2768    2.8612 H   0  0  0  0  0  0  0  0  0  0  0  0
  -12.6742    3.8393    2.5703 H   0  0  0  0  0  0  0  0  0  0  0  0
  -11.0928   -0.3849    1.1559 H   0  0  0  0  0  0  0  0  0  0  0  0
   -9.5581   -4.5782   -0.2191 H   0  0  0  0  0  0  0  0  0  0  0  0
   -7.8231   -6.0502   -1.1943 H   0  0  0  0  0  0  0  0  0  0  0  0
   -5.6714   -5.0878   -1.9296 H   0  0  0  0  0  0  0  0  0  0  0  0
   -3.7245   -3.6983   -0.4150 H   0  0  0  0  0  0  0  0  0  0  0  0
   -1.2764   -3.6792   -0.2609 H   0  0  0  0  0  0  0  0  0  0  0  0
    1.1731   -3.6469   -0.0954 H   0  0  0  0  0  0  0  0  0  0  0  0
    3.6208   -3.6159    0.0702 H   0  0  0  0  0  0  0  0  0  0  0  0
    6.8684    1.8735    0.0614 H   0  0  0  0  0  0  0  0  0  0  0  0
    8.4520    6.2169    1.0359 H   0  0  0  0  0  0  0  0  0  0  0  0
   10.1944    7.7155    1.9655 H   0  0  0  0  0  0  0  0  0  0  0  0
  1  2  4  0
  2  3  4  0
  3  4  4  0
  4  5  4  0
  5  6  4  0
  6  7  4  0
  7  8  4  0
  8  9  4  0
  9 10  4  0
 10 11  4  0
 11 12  4  0
 12 13  4  0
 13 14  1  0
 14 15  4  0
 15 16  4  0
 16 17  4  0
 17 18  4  0
 18 19  4  0
 19 20  4  0
 20 21  4  0
 21 22  4  0
 22 23  4  0
 23 24  4  0
 24 25  1  0
 25 26  4  0
 26 27  4  0
 27 28  4  0
 28 29  4  0
 29 30  4  0
 30 31  4  0
 31 32  4  0
 32 33  4  0
 33 34  4  0
 34 35  4  0
 35 36  4  0
 36 37  4  0
 37 38  4  0
 38 39  4  0
 39 40  4  0
 40 41  4  0
 41 42  4  0
 42 43  4  0
 43 44  4  0
 44 45  4  0
 45 46  4  0
 24 47  4  0
 47 48  4  0
 48 49  4  0
 49 50  4  0
 50 51  4  0
 51 52  4  0
 52 53  4  0
 13 54  4  0
 54 55  4  0
 55 56  4  0
 56 57  4  0
 57 58  4  0
 58 59  4  0
 59 60  4  0
 60 61  4  0
 61 62  4  0
 62  1  4  0
 60  3  4  0
 58  5  4  0
 56  7  4  0
 54  9  4  0
 53 14  4  0
 52 17  4  0
 50 19  4  0
 48 21  4  0
 46 25  4  0
 43 26  4  0
 41 28  4  0
 39 30  4  0
 37 32  4  0
  1 63  1  0
  2 64  1  0
  6 65  1  0
 10 66  1  0
 11 67  1  0
 12 68  1  0
 15 69  1  0
 16 70  1  0
 18 71  1  0
 20 72  1  0
 22 73  1  0
 23 74  1  0
 29 75  1  0
 33 76  1  0
 34 77  1  0
 35 78  1  0
 36 79  1  0
 40 80  1  0
 44 81  1  0
 45 82  1  0
 46 83  1  0
 47 84  1  0
 49 85  1  0
 51 86  1  0
 53 87  1  0
 57 88  1  0
 61 89  1  0
 62 90  1  0
M  END
