
     RDKit          3D

 90103  0  0  0  0  0  0  0  0999 V2000
  -15.4248   -5.2884   -0.3238 C   0  0  0  0  0  0  0  0  0  0  0  0
  -14.4973   -6.1130    0.2991 C   0  0  0  0  0  0  0  0  0  0  0  0
  -13.2201   -5.6241    0.5777 C   0  0  0  0  0  0  0  0  0  0  0  0
  -12.8534   -4.3252    0.2445 C   0  0  0  0  0  0  0  0  0  0  0  0
  -11.6125   -3.8874    0.5285 N   0  0  0  0  0  0  0  0  0  0  0  0
  -11.3060   -2.6244    0.1869 C   0  0  0  0  0  0  0  0  0  0  0  0
  -10.0416   -2.1294    0.4596 C   0  0  0  0  0  0  0  0  0  0  0  0
   -9.6753   -0.8355    0.1286 C   0  0  0  0  0  0  0  0  0  0  0  0
   -8.4359   -0.4023    0.4159 N   0  0  0  0  0  0  0  0  0  0  0  0
   -8.1250    0.8621    0.0789 C   0  0  0  0  0  0  0  0  0  0  0  0
   -6.8563    1.3533    0.3614 C   0  0  0  0  0  0  0  0  0  0  0  0
   -6.4719    2.6631    0.0345 C   0  0  0  0  0  0  0  0  0  0  0  0
   -5.1222    3.1553    0.3474 C   0  0  0  0  0  0  0  0  0  0  0  0
   -4.9364    4.3360    1.0784 C   0  0  0  0  0  0  0  0  0  0  0  0
   -3.6530    4.8010    1.3799 C   0  0  0  0  0  0  0  0  0  0  0  0
   -2.5171    4.0961    0.9571 C   0  0  0  0  0  0  0  0  0  0  0  0
   -1.2207    4.5494    1.2517 C   0  0  0  0  0  0  0  0  0  0  0  0
   -0.0842    3.8413    0.8274 C   0  0  0  0  0  0  0  0  0  0  0  0
    1.2123    4.2941    1.1218 C   0  0  0  0  0  0  0  0  0  0  0  0
    2.3481    3.5858    0.6977 C   0  0  0  0  0  0  0  0  0  0  0  0
    3.6419    4.0368    0.9925 C   0  0  0  0  0  0  0  0  0  0  0  0
    4.7633    3.3204    0.5645 C   0  0  0  0  0  0  0  0  0  0  0  0
    4.6259    2.1350   -0.1706 C   0  0  0  0  0  0  0  0  0  0  0  0
    5.8075    1.3825   -0.6213 C   0  0  0  0  0  0  0  0  0  0  0  0
    6.8118    0.9996    0.2826 C   0  0  0  0  0  0  0  0  0  0  0  0
    7.9408    0.2931   -0.1179 C   0  0  0  0  0  0  0  0  0  0  0  0
    8.8724   -0.0465    0.7923 N   0  0  0  0  0  0  0  0  0  0  0  0
    9.9478   -0.7280    0.3600 C   0  0  0  0  0  0  0  0  0  0  0  0
   10.9332   -1.0994    1.2605 C   0  0  0  0  0  0  0  0  0  0  0  0
   12.0608   -1.8013    0.8656 C   0  0  0  0  0  0  0  0  0  0  0  0
   12.9883   -2.1381    1.7785 N   0  0  0  0  0  0  0  0  0  0  0  0
   14.0664   -2.8194    1.3484 C   0  0  0  0  0  0  0  0  0  0  0  0
   15.0534   -3.1910    2.2537 C   0  0  0  0  0  0  0  0  0  0  0  0
   16.1853   -3.8978    1.8451 C   0  0  0  0  0  0  0  0  0  0  0  0
   16.3329   -4.2390    0.5073 C   0  0  0  0  0  0  0  0  0  0  0  0
   15.3472   -3.8702   -0.4093 C   0  0  0  0  0  0  0  0  0  0  0  0
   14.2165   -3.1664   -0.0119 C   0  0  0  0  0  0  0  0  0  0  0  0
   13.2863   -2.8276   -0.9237 N   0  0  0  0  0  0  0  0  0  0  0  0
   12.2100   -2.1475   -0.4910 C   0  0  0  0  0  0  0  0  0  0  0  0
   11.2239   -1.7764   -1.3912 C   0  0  0  0  0  0  0  0  0  0  0  0
   10.0960   -1.0745   -0.9962 C   0  0  0  0  0  0  0  0  0  0  0  0
    9.1667   -0.7369   -1.9076 N   0  0  0  0  0  0  0  0  0  0  0  0
    8.0898   -0.0552   -1.4757 C   0  0  0  0  0  0  0  0  0  0  0  0
    7.1033    0.3166   -2.3772 C   0  0  0  0  0  0  0  0  0  0  0  0
    5.9727    1.0267   -1.9640 C   0  0  0  0  0  0  0  0  0  0  0  0
    3.3256    1.6879   -0.4632 C   0  0  0  0  0  0  0  0  0  0  0  0
    2.1858    2.3958   -0.0392 C   0  0  0  0  0  0  0  0  0  0  0  0
    0.8884    1.9427   -0.3321 C   0  0  0  0  0  0  0  0  0  0  0  0
   -0.2483    2.6514    0.0915 C   0  0  0  0  0  0  0  0  0  0  0  0
   -1.5450    2.1985   -0.2028 C   0  0  0  0  0  0  0  0  0  0  0  0
   -2.6820    2.9061    0.2213 C   0  0  0  0  0  0  0  0  0  0  0  0
   -3.9805    2.4521   -0.0730 C   0  0  0  0  0  0  0  0  0  0  0  0
   -7.4156    3.4805   -0.5960 C   0  0  0  0  0  0  0  0  0  0  0  0
   -8.6946    2.9965   -0.8838 C   0  0  0  0  0  0  0  0  0  0  0  0
   -9.0644    1.7004   -0.5554 C   0  0  0  0  0  0  0  0  0  0  0  0
  -10.3044    1.2650   -0.8441 N   0  0  0  0  0  0  0  0  0  0  0  0
  -10.6142    0.0015   -0.5040 C   0  0  0  0  0  0  0  0  0  0  0  0
  -11.8791   -0.4939   -0.7768 C   0  0  0  0  0  0  0  0  0  0  0  0
  -12.2462   -1.7881   -0.4450 C   0  0  0  0  0  0  0  0  0  0  0  0
  -13.4860   -2.2222   -0.7298 N   0  0  0  0  0  0  0  0  0  0  0  0
  -13.7965   -3.4869   -0.3888 C   0  0  0  0  0  0  0  0  0  0  0  0
  -15.0660   -3.9828   -0.6622 C   0  0  0  0  0  0  0  0  0  0  0  0
  -16.4237   -5.6549   -0.5473 H   0  0  0  0  0  0  0  0  0  0  0  0
  -14.7616   -7.1325    0.5689 H   0  0  0  0  0  0  0  0  0  0  0  0
  -12.4922   -6.2681    1.0654 H   0  0  0  0  0  0  0  0  0  0  0  0
   -9.3159   -2.7748    0.9481 H   0  0  0  0  0  0  0  0  0  0  0  0
   -6.1530    0.6913    0.8640 H   0  0  0  0  0  0  0  0  0  0  0  0
   -5.7953    4.9015    1.4347 H   0  0  0  0  0  0  0  0  0  0  0  0
   -3.5500    5.7196    1.9535 H   0  0  0  0  0  0  0  0  0  0  0  0
   -1.0958    5.4683    1.8213 H   0  0  0  0  0  0  0  0  0  0  0  0
    1.3399    5.2130    1.6911 H   0  0  0  0  0  0  0  0  0  0  0  0
    3.7908    4.9538    1.5585 H   0  0  0  0  0  0  0  0  0  0  0  0
    5.7522    3.7070    0.8039 H   0  0  0  0  0  0  0  0  0  0  0  0
    6.7141    1.2473    1.3383 H   0  0  0  0  0  0  0  0  0  0  0  0
   10.8185   -0.8321    2.3080 H   0  0  0  0  0  0  0  0  0  0  0  0
   14.9357   -2.9228    3.3010 H   0  0  0  0  0  0  0  0  0  0  0  0
   16.9443   -4.1779    2.5712 H   0  0  0  0  0  0  0  0  0  0  0  0
   17.2089   -4.7895    0.1736 H   0  0  0  0  0  0  0  0  0  0  0  0
   15.4605   -4.1363   -1.4575 H   0  0  0  0  0  0  0  0  0  0  0  0
   11.3387   -2.0438   -2.4387 H   0  0  0  0  0  0  0  0  0  0  0  0
    7.2181    0.0518   -3.4256 H   0  0  0  0  0  0  0  0  0  0  0  0
    5.2289    1.3110   -2.7063 H   0  0  0  0  0  0  0  0  0  0  0  0
    3.1969    0.7620   -1.0220 H   0  0  0  0  0  0  0  0  0  0  0  0
    0.7611    1.0224   -0.8995 H   0  0  0  0  0  0  0  0  0  0  0  0
   -1.6735    1.2791   -0.7714 H   0  0  0  0  0  0  0  0  0  0  0  0
   -4.1035    1.5365   -0.6502 H   0  0  0  0  0  0  0  0  0  0  0  0
   -7.1604    4.4999   -0.8804 H   0  0  0  0  0  0  0  0  0  0  0  0
   -9.4163    3.6435   -1.3766 H   0  0  0  0  0  0  0  0  0  0  0  0
  -12.6049    0.1517   -1.2649 H   0  0  0  0  0  0  0  0  0  0  0  0
  -15.7902   -3.3347   -1.1500 H   0  0  0  0  0  0  0  0  0  0  0  0
  1  2  4  0
  2  3  4  0
  3  4  4  0
  4  5  4  0
  5  6  4  0
  6  7  4  0
  7  8  4  0
  8  9  4  0
  9 10  4  0
 10 11  4  0
 11 12  4  0
 12 13  1  0
 13 14  4  0
 14 15  4  0
 15 16  4  0
 16 17  4  0
 17 18  4  0
 18 19  4  0
 19 20  4  0
 20 21  4  0
 21 22  4  0
 22 23  4  0
 23 24  1  0
 24 25  4  0
 25 26  4  0
 26 27  4  0
 27 28  4  0
 28 29  4  0
 29 30  4  0
 30 31  4  0
 31 32  4  0
 32 33  4  0
 33 34  4  0
 34 35  4  0
 35 36  4  0
 36 37  4  0
 37 38  4  0
 38 39  4  0
 39 40  4  0
 40 41  4  0
 41 42  4  0
 42 43  4  0
 43 44  4  0
 44 45  4  0
 23 46  4  0
 46 47  4  0
 47 48  4  0
 48 49  4  0
 49 50  4  0
 50 51  4  0
 51 52  4  0
 12 53  4  0
 53 54  4  0
 54 55  4  0
 55 56  4  0
 56 57  4  0
 57 58  4  0
 58 59  4  0
 59 60  4  0
 60 61  4  0
 61 62  4  0
 62  1  4  0
 61  4  4  0
 59  6  4  0
 57  8  4  0
 55 10  4  0
 52 13  4  0
 51 16  4  0
 49 18  4  0
 47 20  4  0
 45 24  4  0
 43 26  4  0
 41 28  4  0
 39 30  4  0
 37 32  4  0
  1 63  1  0
  2 64  1  0
  3 65  1  0
  7 66  1  0
 11 67  1  0
 14 68  1  0
 15 69  1  0
 17 70  1  0
 19 71  1  0
 21 72  1  0
 22 73  1  0
 25 74  1  0
 29 75  1  0
 33 76  1  0
 34 77  1  0
 35 78  1  0
 36 79  1  0
 40 80  1  0
 44 81  1  0
 45 82  1  0
 46 83  1  0
 48 84  1  0
 50 85  1  0
 52 86  1  0
 53 87  1  0
 54 88  1  0
 58 89  1  0
 62 90  1  0
M  END
