
     RDKit          3D

 94107  0  0  0  0  0  0  0  0999 V2000
  -13.4113   -0.6047   -3.9407 C   0  0  0  0  0  0  0  0  0  0  0  0
  -14.3591   -0.7446   -2.9338 C   0  0  0  0  0  0  0  0  0  0  0  0
  -13.9669   -0.6701   -1.5937 C   0  0  0  0  0  0  0  0  0  0  0  0
  -12.6437   -0.4579   -1.2293 C   0  0  0  0  0  0  0  0  0  0  0  0
  -12.3189   -0.3941    0.0745 N   0  0  0  0  0  0  0  0  0  0  0  0
  -11.0367   -0.1882    0.4209 C   0  0  0  0  0  0  0  0  0  0  0  0
  -10.6950   -0.1216    1.7623 C   0  0  0  0  0  0  0  0  0  0  0  0
   -9.3672    0.0921    2.1805 C   0  0  0  0  0  0  0  0  0  0  0  0
   -9.0140    0.1588    3.5308 C   0  0  0  0  0  0  0  0  0  0  0  0
   -7.6824    0.3723    3.9057 C   0  0  0  0  0  0  0  0  0  0  0  0
   -7.3284    0.4348    5.2626 C   0  0  0  0  0  0  0  0  0  0  0  0
   -6.0086    0.6465    5.6362 C   0  0  0  0  0  0  0  0  0  0  0  0
   -5.0384    0.7956    4.6527 C   0  0  0  0  0  0  0  0  0  0  0  0
   -5.3706    0.7349    3.2814 C   0  0  0  0  0  0  0  0  0  0  0  0
   -4.2871    0.9067    2.2887 C   0  0  0  0  0  0  0  0  0  0  0  0
   -4.3202    1.9479    1.3515 C   0  0  0  0  0  0  0  0  0  0  0  0
   -3.2798    2.1250    0.4345 C   0  0  0  0  0  0  0  0  0  0  0  0
   -2.1740    1.2632    0.4292 C   0  0  0  0  0  0  0  0  0  0  0  0
   -1.1201    1.4291   -0.4844 C   0  0  0  0  0  0  0  0  0  0  0  0
   -0.0122    0.5649   -0.4894 C   0  0  0  0  0  0  0  0  0  0  0  0
    1.0429    0.7314   -1.4019 C   0  0  0  0  0  0  0  0  0  0  0  0
    2.1509   -0.1319   -1.4056 C   0  0  0  0  0  0  0  0  0  0  0  0
    3.2057    0.0363   -2.3135 C   0  0  0  0  0  0  0  0  0  0  0  0
    4.3029   -0.8295   -2.3022 C   0  0  0  0  0  0  0  0  0  0  0  0
    4.3797   -1.8866   -1.3854 C   0  0  0  0  0  0  0  0  0  0  0  0
    5.5338   -2.8117   -1.3810 C   0  0  0  0  0  0  0  0  0  0  0  0
    5.2978   -4.1841   -1.6125 C   0  0  0  0  0  0  0  0  0  0  0  0
    6.3419   -5.1015   -1.6251 C   0  0  0  0  0  0  0  0  0  0  0  0
    7.6397   -4.6592   -1.4065 C   0  0  0  0  0  0  0  0  0  0  0  0
    7.8978   -3.2988   -1.1748 C   0  0  0  0  0  0  0  0  0  0  0  0
    9.2060   -2.8514   -0.9540 C   0  0  0  0  0  0  0  0  0  0  0  0
    9.4609   -1.4971   -0.7194 C   0  0  0  0  0  0  0  0  0  0  0  0
   10.7611   -1.0053   -0.4935 C   0  0  0  0  0  0  0  0  0  0  0  0
   11.0033    0.3395   -0.2607 C   0  0  0  0  0  0  0  0  0  0  0  0
   12.2631    0.7584   -0.0524 N   0  0  0  0  0  0  0  0  0  0  0  0
   12.4913    2.0647    0.1743 C   0  0  0  0  0  0  0  0  0  0  0  0
   13.7911    2.5033    0.3903 C   0  0  0  0  0  0  0  0  0  0  0  0
   14.0844    3.8492    0.6306 C   0  0  0  0  0  0  0  0  0  0  0  0
   13.0587    4.7868    0.6575 C   0  0  0  0  0  0  0  0  0  0  0  0
   11.7452    4.3744    0.4439 C   0  0  0  0  0  0  0  0  0  0  0  0
   11.4566    3.0190    0.2025 C   0  0  0  0  0  0  0  0  0  0  0  0
   10.1499    2.5698   -0.0163 C   0  0  0  0  0  0  0  0  0  0  0  0
    9.9042    1.2129   -0.2535 C   0  0  0  0  0  0  0  0  0  0  0  0
    8.6056    0.7197   -0.4797 C   0  0  0  0  0  0  0  0  0  0  0  0
    8.3666   -0.6247   -0.7144 C   0  0  0  0  0  0  0  0  0  0  0  0
    7.1099   -1.0439   -0.9279 N   0  0  0  0  0  0  0  0  0  0  0  0
    6.8496   -2.3525   -1.1580 C   0  0  0  0  0  0  0  0  0  0  0  0
    3.3182   -2.0515   -0.4780 C   0  0  0  0  0  0  0  0  0  0  0  0
    2.2065   -1.1889   -0.4751 C   0  0  0  0  0  0  0  0  0  0  0  0
    1.1504   -1.3551    0.4365 C   0  0  0  0  0  0  0  0  0  0  0  0
    0.0421   -0.4910    0.4411 C   0  0  0  0  0  0  0  0  0  0  0  0
   -1.0128   -0.6570    1.3543 C   0  0  0  0  0  0  0  0  0  0  0  0
   -2.1208    0.2073    1.3607 C   0  0  0  0  0  0  0  0  0  0  0  0
   -3.1769    0.0432    2.2759 C   0  0  0  0  0  0  0  0  0  0  0  0
   -6.7106    0.5214    2.8916 C   0  0  0  0  0  0  0  0  0  0  0  0
   -7.0660    0.4539    1.5864 N   0  0  0  0  0  0  0  0  0  0  0  0
   -8.3455    0.2458    1.2364 C   0  0  0  0  0  0  0  0  0  0  0  0
   -8.6845    0.1788   -0.1055 C   0  0  0  0  0  0  0  0  0  0  0  0
  -10.0111   -0.0352   -0.5255 C   0  0  0  0  0  0  0  0  0  0  0  0
  -10.3575   -0.1033   -1.8794 C   0  0  0  0  0  0  0  0  0  0  0  0
  -11.6884   -0.3169   -2.2539 C   0  0  0  0  0  0  0  0  0  0  0  0
  -12.0767   -0.3911   -3.6036 C   0  0  0  0  0  0  0  0  0  0  0  0
  -13.7096   -0.6617   -4.9844 H   0  0  0  0  0  0  0  0  0  0  0  0
  -15.4037   -0.9119   -3.1838 H   0  0  0  0  0  0  0  0  0  0  0  0
  -14.7142   -0.7806   -0.8114 H   0  0  0  0  0  0  0  0  0  0  0  0
  -11.4870   -0.2401    2.4987 H   0  0  0  0  0  0  0  0  0  0  0  0
   -9.7809    0.0423    4.2937 H   0  0  0  0  0  0  0  0  0  0  0  0
   -8.0832    0.3195    6.0377 H   0  0  0  0  0  0  0  0  0  0  0  0
   -5.7359    0.6990    6.6870 H   0  0  0  0  0  0  0  0  0  0  0  0
   -4.0071    0.9740    4.9536 H   0  0  0  0  0  0  0  0  0  0  0  0
   -5.1671    2.6312    1.3276 H   0  0  0  0  0  0  0  0  0  0  0  0
   -3.3446    2.9445   -0.2775 H   0  0  0  0  0  0  0  0  0  0  0  0
   -1.1640    2.2447   -1.2037 H   0  0  0  0  0  0  0  0  0  0  0  0
    1.0016    1.5476   -2.1206 H   0  0  0  0  0  0  0  0  0  0  0  0
    3.1876    0.8472   -3.0379 H   0  0  0  0  0  0  0  0  0  0  0  0
    5.1100   -0.6683   -3.0146 H   0  0  0  0  0  0  0  0  0  0  0  0
    4.2842   -4.5369   -1.7970 H   0  0  0  0  0  0  0  0  0  0  0  0
    6.1435   -6.1543   -1.8081 H   0  0  0  0  0  0  0  0  0  0  0  0
    8.4520   -5.3830   -1.4186 H   0  0  0  0  0  0  0  0  0  0  0  0
   10.0313   -3.5604   -0.9634 H   0  0  0  0  0  0  0  0  0  0  0  0
   11.6102   -1.6853   -0.4982 H   0  0  0  0  0  0  0  0  0  0  0  0
   14.5989    1.7755    0.3710 H   0  0  0  0  0  0  0  0  0  0  0  0
   15.1134    4.1579    0.7959 H   0  0  0  0  0  0  0  0  0  0  0  0
   13.2798    5.8345    0.8441 H   0  0  0  0  0  0  0  0  0  0  0  0
   10.9475    5.1133    0.4666 H   0  0  0  0  0  0  0  0  0  0  0  0
    9.3231    3.2764   -0.0019 H   0  0  0  0  0  0  0  0  0  0  0  0
    7.7540    1.3970   -0.4732 H   0  0  0  0  0  0  0  0  0  0  0  0
    3.3673   -2.8606    0.2490 H   0  0  0  0  0  0  0  0  0  0  0  0
    1.1922   -2.1708    1.1561 H   0  0  0  0  0  0  0  0  0  0  0  0
   -0.9704   -1.4733    2.0732 H   0  0  0  0  0  0  0  0  0  0  0  0
   -3.1400   -0.7788    2.9892 H   0  0  0  0  0  0  0  0  0  0  0  0
   -7.8902    0.2960   -0.8400 H   0  0  0  0  0  0  0  0  0  0  0  0
   -9.5905    0.0099   -2.6422 H   0  0  0  0  0  0  0  0  0  0  0  0
  -11.3406   -0.2827   -4.3969 H   0  0  0  0  0  0  0  0  0  0  0  0
  1  2  4  0
  2  3  4  0
  3  4  4  0
  4  5  4  0
  5  6  4  0
  6  7  4  0
  7  8  4  0
  8  9  4  0
  9 10  4  0
 10 11  4  0
 11 12  4  0
 12 13  4  0
 13 14  4  0
 14 15  1  0
 15 16  4  0
 16 17  4  0
 17 18  4  0
 18 19  4  0
 19 20  4  0
 20 21  4  0
 21 22  4  0
 22 23  4  0
 23 24  4  0
 24 25  4  0
 25 26  1  0
 26 27  4  0
 27 28  4  0
 28 29  4  0
 29 30  4  0
 30 31  4  0
 31 32  4  0
 32 33  4  0
 33 34  4  0
 34 35  4  0
 35 36  4  0
 36 37  4  0
 37 38  4  0
 38 39  4  0
 39 40  4  0
 40 41  4  0
 41 42  4  0
 42 43  4  0
 43 44  4  0
 44 45  4  0
 45 46  4  0
 46 47  4  0
 25 48  4  0
 48 49  4  0
 49 50  4  0
 50 51  4  0
 51 52  4  0
 52 53  4  0
 53 54  4  0
 14 55  4  0
 55 56  4  0
 56 57  4  0
 57 58  4  0
 58 59  4  0
 59 60  4  0
 60 61  4  0
 61 62  4  0
 62  1  4  0
 61  4  4  0
 59  6  4  0
 57  8  4  0
 55 10  4  0
 54 15  4  0
 53 18  4  0
 51 20  4  0
 49 22  4  0
 47 26  4  0
 47 30  4  0
 45 32  4  0
 43 34  4  0
 41 36  4  0
  1 63  1  0
  2 64  1  0
  3 65  1  0
  7 66  1  0
  9 67  1  0
 11 68  1  0
 12 69  1  0
 13 70  1  0
 16 71  1  0
 17 72  1  0
 19 73  1  0
 21 74  1  0
 23 75  1  0
 24 76  1  0
 27 77  1  0
 28 78  1  0
 29 79  1  0
 31 80  1  0
 33 81  1  0
 37 82  1  0
 38 83  1  0
 39 84  1  0
 40 85  1  0
 42 86  1  0
 44 87  1  0
 48 88  1  0
 50 89  1  0
 52 90  1  0
 54 91  1  0
 58 92  1  0
 60 93  1  0
 62 94  1  0
M  END
