
     RDKit          3D

 94107  0  0  0  0  0  0  0  0999 V2000
    9.9928    6.4244   -2.5311 C   0  0  0  0  0  0  0  0  0  0  0  0
    9.0121    5.6547   -1.9095 C   0  0  0  0  0  0  0  0  0  0  0  0
    9.2307    4.2864   -1.6681 C   0  0  0  0  0  0  0  0  0  0  0  0
    8.2689    3.4836   -1.0461 C   0  0  0  0  0  0  0  0  0  0  0  0
    8.5252    2.1263   -0.8231 C   0  0  0  0  0  0  0  0  0  0  0  0
    7.5865    1.2837   -0.1994 C   0  0  0  0  0  0  0  0  0  0  0  0
    7.8456   -0.0594    0.0203 C   0  0  0  0  0  0  0  0  0  0  0  0
    6.9190   -0.8196    0.6229 N   0  0  0  0  0  0  0  0  0  0  0  0
    7.1480   -2.1345    0.8487 C   0  0  0  0  0  0  0  0  0  0  0  0
    6.1832   -2.9496    1.4775 C   0  0  0  0  0  0  0  0  0  0  0  0
    4.8831   -2.4070    1.9270 C   0  0  0  0  0  0  0  0  0  0  0  0
    4.8163   -1.3795    2.8776 C   0  0  0  0  0  0  0  0  0  0  0  0
    3.5854   -0.8811    3.3142 C   0  0  0  0  0  0  0  0  0  0  0  0
    2.3834   -1.3981    2.8107 C   0  0  0  0  0  0  0  0  0  0  0  0
    1.1383   -0.9082    3.2383 C   0  0  0  0  0  0  0  0  0  0  0  0
   -0.0656   -1.4245    2.7302 C   0  0  0  0  0  0  0  0  0  0  0  0
   -1.3115   -0.9342    3.1562 C   0  0  0  0  0  0  0  0  0  0  0  0
   -2.5144   -1.4502    2.6467 C   0  0  0  0  0  0  0  0  0  0  0  0
   -3.7581   -0.9591    3.0683 C   0  0  0  0  0  0  0  0  0  0  0  0
   -4.9460   -1.4836    2.5511 C   0  0  0  0  0  0  0  0  0  0  0  0
   -4.9276   -2.5120    1.5994 C   0  0  0  0  0  0  0  0  0  0  0  0
   -6.1837   -3.0846    1.0685 C   0  0  0  0  0  0  0  0  0  0  0  0
   -7.1272   -2.2932    0.3783 C   0  0  0  0  0  0  0  0  0  0  0  0
   -6.9184   -0.9729    0.1610 N   0  0  0  0  0  0  0  0  0  0  0  0
   -7.8261   -0.2373   -0.5002 C   0  0  0  0  0  0  0  0  0  0  0  0
   -7.5893    1.1117   -0.7116 C   0  0  0  0  0  0  0  0  0  0  0  0
   -8.5101    1.9283   -1.3952 C   0  0  0  0  0  0  0  0  0  0  0  0
   -8.2751    3.2908   -1.6107 C   0  0  0  0  0  0  0  0  0  0  0  0
   -9.2174    4.0669   -2.2943 C   0  0  0  0  0  0  0  0  0  0  0  0
   -9.0182    5.4391   -2.5310 C   0  0  0  0  0  0  0  0  0  0  0  0
   -9.9781    6.1817   -3.2152 C   0  0  0  0  0  0  0  0  0  0  0  0
  -11.1363    5.5576   -3.6635 C   0  0  0  0  0  0  0  0  0  0  0  0
  -11.3286    4.1932   -3.4254 C   0  0  0  0  0  0  0  0  0  0  0  0
  -10.3884    3.4293   -2.7463 C   0  0  0  0  0  0  0  0  0  0  0  0
  -10.6217    2.1201   -2.5433 N   0  0  0  0  0  0  0  0  0  0  0  0
   -9.7082    1.3854   -1.8859 C   0  0  0  0  0  0  0  0  0  0  0  0
   -9.9419    0.0357   -1.6752 C   0  0  0  0  0  0  0  0  0  0  0  0
   -9.0192   -0.7798   -0.9914 C   0  0  0  0  0  0  0  0  0  0  0  0
   -9.2463   -2.1418   -0.7755 C   0  0  0  0  0  0  0  0  0  0  0  0
   -8.3042   -2.9179   -0.0901 C   0  0  0  0  0  0  0  0  0  0  0  0
   -8.5306   -4.2869    0.1231 C   0  0  0  0  0  0  0  0  0  0  0  0
   -7.5968   -5.0568    0.8031 C   0  0  0  0  0  0  0  0  0  0  0  0
   -6.4331   -4.4592    1.2720 C   0  0  0  0  0  0  0  0  0  0  0  0
   -3.6774   -3.0000    1.1794 C   0  0  0  0  0  0  0  0  0  0  0  0
   -2.4720   -2.4825    1.6883 C   0  0  0  0  0  0  0  0  0  0  0  0
   -1.2256   -2.9708    1.2616 C   0  0  0  0  0  0  0  0  0  0  0  0
   -0.0223   -2.4548    1.7710 C   0  0  0  0  0  0  0  0  0  0  0  0
    1.2232   -2.9441    1.3430 C   0  0  0  0  0  0  0  0  0  0  0  0
    2.4274   -2.4297    1.8517 C   0  0  0  0  0  0  0  0  0  0  0  0
    3.6747   -2.9201    1.4237 C   0  0  0  0  0  0  0  0  0  0  0  0
    6.4524   -4.3182    1.6938 C   0  0  0  0  0  0  0  0  0  0  0  0
    7.6569   -4.8863    1.2964 C   0  0  0  0  0  0  0  0  0  0  0  0
    8.6121   -4.0925    0.6760 C   0  0  0  0  0  0  0  0  0  0  0  0
    8.3660   -2.7287    0.4517 C   0  0  0  0  0  0  0  0  0  0  0  0
    9.3278   -1.9269   -0.1741 C   0  0  0  0  0  0  0  0  0  0  0  0
    9.0793   -0.5700   -0.3997 C   0  0  0  0  0  0  0  0  0  0  0  0
   10.0196    0.2714   -1.0243 C   0  0  0  0  0  0  0  0  0  0  0  0
    9.7637    1.6156   -1.2433 C   0  0  0  0  0  0  0  0  0  0  0  0
   10.6956    2.3761   -1.8418 N   0  0  0  0  0  0  0  0  0  0  0  0
   10.4421    3.6803   -2.0519 C   0  0  0  0  0  0  0  0  0  0  0  0
   11.4021    4.4708   -2.6695 C   0  0  0  0  0  0  0  0  0  0  0  0
   11.1909    5.8315   -2.9122 C   0  0  0  0  0  0  0  0  0  0  0  0
    9.8223    7.4817   -2.7168 H   0  0  0  0  0  0  0  0  0  0  0  0
    8.0773    6.1255   -1.6142 H   0  0  0  0  0  0  0  0  0  0  0  0
    7.3203    3.9151   -0.7350 H   0  0  0  0  0  0  0  0  0  0  0  0
    6.6264    1.6794    0.1254 H   0  0  0  0  0  0  0  0  0  0  0  0
    5.7325   -0.9521    3.2811 H   0  0  0  0  0  0  0  0  0  0  0  0
    3.5780   -0.0795    4.0491 H   0  0  0  0  0  0  0  0  0  0  0  0
    1.1056   -0.1102    3.9777 H   0  0  0  0  0  0  0  0  0  0  0  0
   -1.3442   -0.1363    3.8958 H   0  0  0  0  0  0  0  0  0  0  0  0
   -3.8161   -0.1592    3.8028 H   0  0  0  0  0  0  0  0  0  0  0  0
   -5.8960   -1.0769    2.8933 H   0  0  0  0  0  0  0  0  0  0  0  0
   -6.6606    1.5332   -0.3322 H   0  0  0  0  0  0  0  0  0  0  0  0
   -7.3577    3.7474   -1.2463 H   0  0  0  0  0  0  0  0  0  0  0  0
   -8.1143    5.9339   -2.1833 H   0  0  0  0  0  0  0  0  0  0  0  0
   -9.8224    7.2420   -3.3974 H   0  0  0  0  0  0  0  0  0  0  0  0
  -11.8929    6.1258   -4.1985 H   0  0  0  0  0  0  0  0  0  0  0  0
  -12.2372    3.7120   -3.7796 H   0  0  0  0  0  0  0  0  0  0  0  0
  -10.8688   -0.3888   -2.0553 H   0  0  0  0  0  0  0  0  0  0  0  0
  -10.1618   -2.5996   -1.1447 H   0  0  0  0  0  0  0  0  0  0  0  0
   -9.4399   -4.7612   -0.2404 H   0  0  0  0  0  0  0  0  0  0  0  0
   -7.7744   -6.1157    0.9712 H   0  0  0  0  0  0  0  0  0  0  0  0
   -5.7113   -5.0668    1.8159 H   0  0  0  0  0  0  0  0  0  0  0  0
   -3.6438   -3.7920    0.4327 H   0  0  0  0  0  0  0  0  0  0  0  0
   -1.1910   -3.7646    0.5178 H   0  0  0  0  0  0  0  0  0  0  0  0
    1.2553   -3.7378    0.5988 H   0  0  0  0  0  0  0  0  0  0  0  0
    3.7084   -3.7095    0.6745 H   0  0  0  0  0  0  0  0  0  0  0  0
    5.7126   -4.9443    2.1904 H   0  0  0  0  0  0  0  0  0  0  0  0
    7.8491   -5.9412    1.4734 H   0  0  0  0  0  0  0  0  0  0  0  0
    9.5530   -4.5437    0.3681 H   0  0  0  0  0  0  0  0  0  0  0  0
   10.2750   -2.3601   -0.4886 H   0  0  0  0  0  0  0  0  0  0  0  0
   10.9781   -0.1272   -1.3497 H   0  0  0  0  0  0  0  0  0  0  0  0
   12.3418    4.0137   -2.9704 H   0  0  0  0  0  0  0  0  0  0  0  0
   11.9640    6.4212   -3.3979 H   0  0  0  0  0  0  0  0  0  0  0  0
  1  2  4  0
  2  3  4  0
  3  4  4  0
  4  5  4  0
  5  6  4  0
  6  7  4  0
  7  8  4  0
  8  9  4  0
  9 10  4  0
 10 11  1  0
 11 12  4  0
 12 13  4  0
 13 14  4  0
 14 15  4  0
 15 16  4  0
 16 17  4  0
 17 18  4  0
 18 19  4  0
 19 20  4  0
 20 21  4  0
 21 22  1  0
 22 23  4  0
 23 24  4  0
 24 25  4  0
 25 26  4  0
 26 27  4  0
 27 28  4  0
 28 29  4  0
 29 30  4  0
 30 31  4  0
 31 32  4  0
 32 33  4  0
 33 34  4  0
 34 35  4  0
 35 36  4  0
 36 37  4  0
 37 38  4  0
 38 39  4  0
 39 40  4  0
 40 41  4  0
 41 42  4  0
 42 43  4  0
 21 44  4  0
 44 45  4  0
 45 46  4  0
 46 47  4  0
 47 48  4  0
 48 49  4  0
 49 50  4  0
 10 51  4  0
 51 52  4  0
 52 53  4  0
 53 54  4  0
 54 55  4  0
 55 56  4  0
 56 57  4  0
 57 58  4  0
 58 59  4  0
 59 60  4  0
 60 61  4  0
 61 62  4  0
 62  1  4  0
 60  3  4  0
 58  5  4  0
 56  7  4  0
 54  9  4  0
 50 11  4  0
 49 14  4  0
 47 16  4  0
 45 18  4  0
 43 22  4  0
 40 23  4  0
 38 25  4  0
 36 27  4  0
 34 29  4  0
  1 63  1  0
  2 64  1  0
  4 65  1  0
  6 66  1  0
 12 67  1  0
 13 68  1  0
 15 69  1  0
 17 70  1  0
 19 71  1  0
 20 72  1  0
 26 73  1  0
 28 74  1  0
 30 75  1  0
 31 76  1  0
 32 77  1  0
 33 78  1  0
 37 79  1  0
 39 80  1  0
 41 81  1  0
 42 82  1  0
 43 83  1  0
 44 84  1  0
 46 85  1  0
 48 86  1  0
 50 87  1  0
 51 88  1  0
 52 89  1  0
 53 90  1  0
 55 91  1  0
 57 92  1  0
 61 93  1  0
 62 94  1  0
M  END
