
     RDKit          3D

 94107  0  0  0  0  0  0  0  0999 V2000
   14.2282   -2.3016    1.0455 C   0  0  0  0  0  0  0  0  0  0  0  0
   13.3600   -2.5203    2.1088 C   0  0  0  0  0  0  0  0  0  0  0  0
   12.0457   -2.0480    2.0426 C   0  0  0  0  0  0  0  0  0  0  0  0
   11.5713   -1.3580    0.9348 C   0  0  0  0  0  0  0  0  0  0  0  0
   10.2981   -0.9245    0.9210 N   0  0  0  0  0  0  0  0  0  0  0  0
    9.8430   -0.2578   -0.1535 C   0  0  0  0  0  0  0  0  0  0  0  0
    8.5316    0.1912   -0.1742 C   0  0  0  0  0  0  0  0  0  0  0  0
    8.0054    0.8977   -1.2732 C   0  0  0  0  0  0  0  0  0  0  0  0
    6.6831    1.3585   -1.3001 C   0  0  0  0  0  0  0  0  0  0  0  0
    6.1820    2.0718   -2.4086 C   0  0  0  0  0  0  0  0  0  0  0  0
    7.0830    2.2737   -3.4751 C   0  0  0  0  0  0  0  0  0  0  0  0
    8.3532    1.8332   -3.4599 N   0  0  0  0  0  0  0  0  0  0  0  0
    8.8080    1.1646   -2.3891 C   0  0  0  0  0  0  0  0  0  0  0  0
   10.1187    0.7146   -2.3715 C   0  0  0  0  0  0  0  0  0  0  0  0
   10.6462    0.0102   -1.2731 C   0  0  0  0  0  0  0  0  0  0  0  0
   11.9696   -0.4439   -1.2511 C   0  0  0  0  0  0  0  0  0  0  0  0
   12.4551   -1.1396   -0.1389 C   0  0  0  0  0  0  0  0  0  0  0  0
   13.7784   -1.6122   -0.0783 C   0  0  0  0  0  0  0  0  0  0  0  0
    6.6481    2.9582   -4.5997 C   0  0  0  0  0  0  0  0  0  0  0  0
    5.3494    3.4523   -4.7063 C   0  0  0  0  0  0  0  0  0  0  0  0
    4.4561    3.2623   -3.6600 C   0  0  0  0  0  0  0  0  0  0  0  0
    4.8505    2.5772   -2.4990 C   0  0  0  0  0  0  0  0  0  0  0  0
    3.8679    2.4166   -1.4156 C   0  0  0  0  0  0  0  0  0  0  0  0
    3.9102    3.2401   -0.2839 C   0  0  0  0  0  0  0  0  0  0  0  0
    2.9754    3.0885    0.7429 C   0  0  0  0  0  0  0  0  0  0  0  0
    1.9710    2.1125    0.6601 C   0  0  0  0  0  0  0  0  0  0  0  0
    1.0247    1.9479    1.6846 C   0  0  0  0  0  0  0  0  0  0  0  0
    0.0169    0.9726    1.6015 C   0  0  0  0  0  0  0  0  0  0  0  0
   -0.9283    0.8076    2.6278 C   0  0  0  0  0  0  0  0  0  0  0  0
   -1.9364   -0.1666    2.5448 C   0  0  0  0  0  0  0  0  0  0  0  0
   -2.8793   -0.3311    3.5703 C   0  0  0  0  0  0  0  0  0  0  0  0
   -3.8779   -1.3032    3.4732 C   0  0  0  0  0  0  0  0  0  0  0  0
   -3.9593   -2.1319    2.3478 C   0  0  0  0  0  0  0  0  0  0  0  0
   -5.0129   -3.1524    2.2422 C   0  0  0  0  0  0  0  0  0  0  0  0
   -4.7154   -4.4643    2.6445 C   0  0  0  0  0  0  0  0  0  0  0  0
   -5.6798   -5.4610    2.5692 C   0  0  0  0  0  0  0  0  0  0  0  0
   -6.9522   -5.1529    2.0903 C   0  0  0  0  0  0  0  0  0  0  0  0
   -7.2918   -3.8726    1.6805 C   0  0  0  0  0  0  0  0  0  0  0  0
   -8.5425   -3.6661    1.2323 N   0  0  0  0  0  0  0  0  0  0  0  0
   -8.9042   -2.4394    0.8263 C   0  0  0  0  0  0  0  0  0  0  0  0
  -10.1936   -2.2245    0.3660 C   0  0  0  0  0  0  0  0  0  0  0  0
  -10.6226   -0.9573   -0.0708 C   0  0  0  0  0  0  0  0  0  0  0  0
  -11.9235   -0.7351   -0.5358 C   0  0  0  0  0  0  0  0  0  0  0  0
  -12.3086    0.5410   -0.9600 C   0  0  0  0  0  0  0  0  0  0  0  0
  -13.6060    0.8056   -1.4338 C   0  0  0  0  0  0  0  0  0  0  0  0
  -13.9545    2.0891   -1.8480 C   0  0  0  0  0  0  0  0  0  0  0  0
  -13.0113    3.1085   -1.7904 C   0  0  0  0  0  0  0  0  0  0  0  0
  -11.7232    2.8390   -1.3185 C   0  0  0  0  0  0  0  0  0  0  0  0
  -11.3491    1.5695   -0.8995 C   0  0  0  0  0  0  0  0  0  0  0  0
  -10.0970    1.3637   -0.4541 N   0  0  0  0  0  0  0  0  0  0  0  0
   -9.7393    0.1338   -0.0496 C   0  0  0  0  0  0  0  0  0  0  0  0
   -8.4506   -0.0833    0.4101 C   0  0  0  0  0  0  0  0  0  0  0  0
   -8.0231   -1.3511    0.8474 C   0  0  0  0  0  0  0  0  0  0  0  0
   -6.7231   -1.5767    1.3149 C   0  0  0  0  0  0  0  0  0  0  0  0
   -6.3184   -2.8543    1.7513 C   0  0  0  0  0  0  0  0  0  0  0  0
   -3.0133   -1.9704    1.3233 C   0  0  0  0  0  0  0  0  0  0  0  0
   -2.0024   -0.9969    1.4071 C   0  0  0  0  0  0  0  0  0  0  0  0
   -1.0561   -0.8320    0.3818 C   0  0  0  0  0  0  0  0  0  0  0  0
   -0.0471    0.1425    0.4651 C   0  0  0  0  0  0  0  0  0  0  0  0
    0.8998    0.3069   -0.5600 C   0  0  0  0  0  0  0  0  0  0  0  0
    1.9097    1.2803   -0.4764 C   0  0  0  0  0  0  0  0  0  0  0  0
    2.8600    1.4429   -1.5001 C   0  0  0  0  0  0  0  0  0  0  0  0
   15.2512   -2.6664    1.0906 H   0  0  0  0  0  0  0  0  0  0  0  0
   13.6984   -3.0569    2.9912 H   0  0  0  0  0  0  0  0  0  0  0  0
   11.3720   -2.2231    2.8781 H   0  0  0  0  0  0  0  0  0  0  0  0
    7.9055   -0.0151    0.6915 H   0  0  0  0  0  0  0  0  0  0  0  0
    6.0384    1.1566   -0.4468 H   0  0  0  0  0  0  0  0  0  0  0  0
   10.7428    0.9213   -3.2383 H   0  0  0  0  0  0  0  0  0  0  0  0
   12.6223   -0.2554   -2.1004 H   0  0  0  0  0  0  0  0  0  0  0  0
   14.4629   -1.4449   -0.9067 H   0  0  0  0  0  0  0  0  0  0  0  0
    7.3446    3.1119   -5.4212 H   0  0  0  0  0  0  0  0  0  0  0  0
    5.0410    3.9853   -5.6017 H   0  0  0  0  0  0  0  0  0  0  0  0
    3.4449    3.6572   -3.7452 H   0  0  0  0  0  0  0  0  0  0  0  0
    4.6761    4.0085   -0.1957 H   0  0  0  0  0  0  0  0  0  0  0  0
    3.0381    3.7432    1.6095 H   0  0  0  0  0  0  0  0  0  0  0  0
    1.0747    2.5899    2.5622 H   0  0  0  0  0  0  0  0  0  0  0  0
   -0.8782    1.4484    3.5065 H   0  0  0  0  0  0  0  0  0  0  0  0
   -2.8461    0.2990    4.4564 H   0  0  0  0  0  0  0  0  0  0  0  0
   -4.5969   -1.4097    4.2833 H   0  0  0  0  0  0  0  0  0  0  0  0
   -3.7241   -4.7091    3.0225 H   0  0  0  0  0  0  0  0  0  0  0  0
   -5.4467   -6.4752    2.8826 H   0  0  0  0  0  0  0  0  0  0  0  0
   -7.7042   -5.9371    2.0346 H   0  0  0  0  0  0  0  0  0  0  0  0
  -10.8791   -3.0692    0.3489 H   0  0  0  0  0  0  0  0  0  0  0  0
  -12.6366   -1.5557   -0.5673 H   0  0  0  0  0  0  0  0  0  0  0  0
  -14.3492    0.0131   -1.4816 H   0  0  0  0  0  0  0  0  0  0  0  0
  -14.9576    2.2917   -2.2138 H   0  0  0  0  0  0  0  0  0  0  0  0
  -13.2709    4.1140   -2.1107 H   0  0  0  0  0  0  0  0  0  0  0  0
  -10.9905    3.6415   -1.2764 H   0  0  0  0  0  0  0  0  0  0  0  0
   -7.7634    0.7602    0.4275 H   0  0  0  0  0  0  0  0  0  0  0  0
   -6.0204   -0.7460    1.3374 H   0  0  0  0  0  0  0  0  0  0  0  0
   -3.0717   -2.6129    0.4457 H   0  0  0  0  0  0  0  0  0  0  0  0
   -1.1052   -1.4743   -0.4960 H   0  0  0  0  0  0  0  0  0  0  0  0
    0.8509   -0.3343   -1.4387 H   0  0  0  0  0  0  0  0  0  0  0  0
    2.8198    0.7999   -2.3784 H   0  0  0  0  0  0  0  0  0  0  0  0
  1  2  4  0
  2  3  4  0
  3  4  4  0
  4  5  4  0
  5  6  4  0
  6  7  4  0
  7  8  4  0
  8  9  4  0
  9 10  4  0
 10 11  4  0
 11 12  4  0
 12 13  4  0
 13 14  4  0
 14 15  4  0
 15 16  4  0
 16 17  4  0
 17 18  4  0
 11 19  4  0
 19 20  4  0
 20 21  4  0
 21 22  4  0
 22 23  1  0
 23 24  4  0
 24 25  4  0
 25 26  4  0
 26 27  4  0
 27 28  4  0
 28 29  4  0
 29 30  4  0
 30 31  4  0
 31 32  4  0
 32 33  4  0
 33 34  1  0
 34 35  4  0
 35 36  4  0
 36 37  4  0
 37 38  4  0
 38 39  4  0
 39 40  4  0
 40 41  4  0
 41 42  4  0
 42 43  4  0
 43 44  4  0
 44 45  4  0
 45 46  4  0
 46 47  4  0
 47 48  4  0
 48 49  4  0
 49 50  4  0
 50 51  4  0
 51 52  4  0
 52 53  4  0
 53 54  4  0
 54 55  4  0
 33 56  4  0
 56 57  4  0
 57 58  4  0
 58 59  4  0
 59 60  4  0
 60 61  4  0
 61 62  4  0
 18  1  4  0
 62 23  4  0
 17  4  4  0
 61 26  4  0
 15  6  4  0
 59 28  4  0
 13  8  4  0
 57 30  4  0
 22 10  4  0
 55 34  4  0
 55 38  4  0
 53 40  4  0
 51 42  4  0
 49 44  4  0
  1 63  1  0
  2 64  1  0
  3 65  1  0
  7 66  1  0
  9 67  1  0
 14 68  1  0
 16 69  1  0
 18 70  1  0
 19 71  1  0
 20 72  1  0
 21 73  1  0
 24 74  1  0
 25 75  1  0
 27 76  1  0
 29 77  1  0
 31 78  1  0
 32 79  1  0
 35 80  1  0
 36 81  1  0
 37 82  1  0
 41 83  1  0
 43 84  1  0
 45 85  1  0
 46 86  1  0
 47 87  1  0
 48 88  1  0
 52 89  1  0
 54 90  1  0
 56 91  1  0
 58 92  1  0
 60 93  1  0
 62 94  1  0
M  END
