
     RDKit          3D

 94107  0  0  0  0  0  0  0  0999 V2000
  -16.1858   -2.5634    3.8268 C   0  0  0  0  0  0  0  0  0  0  0  0
  -15.4781   -3.7480    3.6591 C   0  0  0  0  0  0  0  0  0  0  0  0
  -14.2216   -3.7270    3.0460 C   0  0  0  0  0  0  0  0  0  0  0  0
  -13.6482   -2.5462    2.5924 C   0  0  0  0  0  0  0  0  0  0  0  0
  -12.4366   -2.5809    2.0094 N   0  0  0  0  0  0  0  0  0  0  0  0
  -11.8862   -1.4359    1.5725 C   0  0  0  0  0  0  0  0  0  0  0  0
  -10.6380   -1.4673    0.9719 C   0  0  0  0  0  0  0  0  0  0  0  0
  -10.0141   -0.2985    0.4969 C   0  0  0  0  0  0  0  0  0  0  0  0
   -8.7532   -0.3264   -0.1088 C   0  0  0  0  0  0  0  0  0  0  0  0
   -8.1665    0.8586   -0.5659 C   0  0  0  0  0  0  0  0  0  0  0  0
   -6.8985    0.8725   -1.1787 C   0  0  0  0  0  0  0  0  0  0  0  0
   -6.3232    2.0678   -1.6341 C   0  0  0  0  0  0  0  0  0  0  0  0
   -4.9979    2.0783   -2.2704 C   0  0  0  0  0  0  0  0  0  0  0  0
   -4.8156    2.6182   -3.5504 C   0  0  0  0  0  0  0  0  0  0  0  0
   -3.5555    2.6234   -4.1556 C   0  0  0  0  0  0  0  0  0  0  0  0
   -2.4402    2.0898   -3.4943 C   0  0  0  0  0  0  0  0  0  0  0  0
   -1.1676    2.0877   -4.0886 C   0  0  0  0  0  0  0  0  0  0  0  0
   -0.0501    1.5554   -3.4241 C   0  0  0  0  0  0  0  0  0  0  0  0
    1.2234    1.5538   -4.0174 C   0  0  0  0  0  0  0  0  0  0  0  0
    2.3402    1.0228   -3.3517 C   0  0  0  0  0  0  0  0  0  0  0  0
    3.6116    1.0220   -3.9422 C   0  0  0  0  0  0  0  0  0  0  0  0
    4.7135    0.4908   -3.2657 C   0  0  0  0  0  0  0  0  0  0  0  0
    4.5777   -0.0552   -1.9820 C   0  0  0  0  0  0  0  0  0  0  0  0
    5.7385   -0.6118   -1.2703 C   0  0  0  0  0  0  0  0  0  0  0  0
    6.9053    0.1444   -1.0861 C   0  0  0  0  0  0  0  0  0  0  0  0
    8.0208   -0.3855   -0.4101 C   0  0  0  0  0  0  0  0  0  0  0  0
    9.1904    0.3581   -0.2222 C   0  0  0  0  0  0  0  0  0  0  0  0
   10.2793   -0.2048    0.4516 C   0  0  0  0  0  0  0  0  0  0  0  0
   11.4747    0.5080    0.6578 C   0  0  0  0  0  0  0  0  0  0  0  0
   12.5521   -0.0524    1.3242 C   0  0  0  0  0  0  0  0  0  0  0  0
   13.6704    0.6719    1.4924 N   0  0  0  0  0  0  0  0  0  0  0  0
   14.7148    0.1250    2.1401 C   0  0  0  0  0  0  0  0  0  0  0  0
   15.8737    0.8692    2.3172 C   0  0  0  0  0  0  0  0  0  0  0  0
   16.9883    0.3499    2.9829 C   0  0  0  0  0  0  0  0  0  0  0  0
   16.9517   -0.9449    3.4871 C   0  0  0  0  0  0  0  0  0  0  0  0
   15.8017   -1.7139    3.3236 C   0  0  0  0  0  0  0  0  0  0  0  0
   14.6838   -1.1858    2.6530 C   0  0  0  0  0  0  0  0  0  0  0  0
   13.5129   -1.9293    2.4706 C   0  0  0  0  0  0  0  0  0  0  0  0
   12.4221   -1.3677    1.7977 C   0  0  0  0  0  0  0  0  0  0  0  0
   11.2258   -2.0803    1.5915 C   0  0  0  0  0  0  0  0  0  0  0  0
   10.1484   -1.5202    0.9238 C   0  0  0  0  0  0  0  0  0  0  0  0
    9.0291   -2.2432    0.7512 N   0  0  0  0  0  0  0  0  0  0  0  0
    7.9881   -1.6947    0.1006 C   0  0  0  0  0  0  0  0  0  0  0  0
    6.8315   -2.4363   -0.0831 C   0  0  0  0  0  0  0  0  0  0  0  0
    5.7199   -1.9135   -0.7557 C   0  0  0  0  0  0  0  0  0  0  0  0
    3.3007   -0.0526   -1.3954 C   0  0  0  0  0  0  0  0  0  0  0  0
    2.1814    0.4790   -2.0616 C   0  0  0  0  0  0  0  0  0  0  0  0
    0.9078    0.4814   -1.4687 C   0  0  0  0  0  0  0  0  0  0  0  0
   -0.2097    1.0125   -2.1342 C   0  0  0  0  0  0  0  0  0  0  0  0
   -1.4830    1.0137   -1.5405 C   0  0  0  0  0  0  0  0  0  0  0  0
   -2.6012    1.5447   -2.2050 C   0  0  0  0  0  0  0  0  0  0  0  0
   -3.8767    1.5454   -1.6116 C   0  0  0  0  0  0  0  0  0  0  0  0
   -7.0530    3.2493   -1.4602 C   0  0  0  0  0  0  0  0  0  0  0  0
   -8.3130    3.2310   -0.8490 C   0  0  0  0  0  0  0  0  0  0  0  0
   -8.8874    2.0533   -0.3956 C   0  0  0  0  0  0  0  0  0  0  0  0
  -10.0998    2.0896    0.1851 N   0  0  0  0  0  0  0  0  0  0  0  0
  -10.6524    0.9453    0.6220 C   0  0  0  0  0  0  0  0  0  0  0  0
  -11.9010    0.9767    1.2223 C   0  0  0  0  0  0  0  0  0  0  0  0
  -12.5250   -0.1921    1.6981 C   0  0  0  0  0  0  0  0  0  0  0  0
  -13.7853   -0.1646    2.3056 C   0  0  0  0  0  0  0  0  0  0  0  0
  -14.3697   -1.3498    2.7650 C   0  0  0  0  0  0  0  0  0  0  0  0
  -15.6342   -1.3643    3.3810 C   0  0  0  0  0  0  0  0  0  0  0  0
  -17.1630   -2.5727    4.3027 H   0  0  0  0  0  0  0  0  0  0  0  0
  -15.8974   -4.6902    4.0025 H   0  0  0  0  0  0  0  0  0  0  0  0
  -13.6736   -4.6576    2.9182 H   0  0  0  0  0  0  0  0  0  0  0  0
  -10.1413   -2.4303    0.8736 H   0  0  0  0  0  0  0  0  0  0  0  0
   -8.2278   -1.2719   -0.2239 H   0  0  0  0  0  0  0  0  0  0  0  0
   -6.3580   -0.0635   -1.3121 H   0  0  0  0  0  0  0  0  0  0  0  0
   -5.6616    3.0314   -4.0963 H   0  0  0  0  0  0  0  0  0  0  0  0
   -3.4547    3.0477   -5.1522 H   0  0  0  0  0  0  0  0  0  0  0  0
   -1.0452    2.5089   -5.0850 H   0  0  0  0  0  0  0  0  0  0  0  0
    1.3477    1.9735   -5.0140 H   0  0  0  0  0  0  0  0  0  0  0  0
    3.7571    1.4335   -4.9386 H   0  0  0  0  0  0  0  0  0  0  0  0
    5.6836    0.4962   -3.7592 H   0  0  0  0  0  0  0  0  0  0  0  0
    6.9442    1.1647   -1.4648 H   0  0  0  0  0  0  0  0  0  0  0  0
    9.2544    1.3753   -0.6019 H   0  0  0  0  0  0  0  0  0  0  0  0
   11.5733    1.5272    0.2902 H   0  0  0  0  0  0  0  0  0  0  0  0
   15.9099    1.8831    1.9255 H   0  0  0  0  0  0  0  0  0  0  0  0
   17.8796    0.9601    3.1039 H   0  0  0  0  0  0  0  0  0  0  0  0
   17.8148   -1.3546    4.0056 H   0  0  0  0  0  0  0  0  0  0  0  0
   15.7803   -2.7261    3.7207 H   0  0  0  0  0  0  0  0  0  0  0  0
   13.4508   -2.9458    2.8526 H   0  0  0  0  0  0  0  0  0  0  0  0
   11.1272   -3.0996    1.9588 H   0  0  0  0  0  0  0  0  0  0  0  0
    6.7925   -3.4521    0.3034 H   0  0  0  0  0  0  0  0  0  0  0  0
    4.8420   -2.5437   -0.8839 H   0  0  0  0  0  0  0  0  0  0  0  0
    3.1773   -0.4624   -0.3938 H   0  0  0  0  0  0  0  0  0  0  0  0
    0.7845    0.0630   -0.4713 H   0  0  0  0  0  0  0  0  0  0  0  0
   -1.6060    0.5949   -0.5432 H   0  0  0  0  0  0  0  0  0  0  0  0
   -3.9986    1.1336   -0.6106 H   0  0  0  0  0  0  0  0  0  0  0  0
   -6.6424    4.2026   -1.7877 H   0  0  0  0  0  0  0  0  0  0  0  0
   -8.8580    4.1635   -0.7217 H   0  0  0  0  0  0  0  0  0  0  0  0
  -12.3979    1.9395    1.3207 H   0  0  0  0  0  0  0  0  0  0  0  0
  -14.3114    0.7803    2.4210 H   0  0  0  0  0  0  0  0  0  0  0  0
  -16.1935   -0.4413    3.5157 H   0  0  0  0  0  0  0  0  0  0  0  0
  1  2  4  0
  2  3  4  0
  3  4  4  0
  4  5  4  0
  5  6  4  0
  6  7  4  0
  7  8  4  0
  8  9  4  0
  9 10  4  0
 10 11  4  0
 11 12  4  0
 12 13  1  0
 13 14  4  0
 14 15  4  0
 15 16  4  0
 16 17  4  0
 17 18  4  0
 18 19  4  0
 19 20  4  0
 20 21  4  0
 21 22  4  0
 22 23  4  0
 23 24  1  0
 24 25  4  0
 25 26  4  0
 26 27  4  0
 27 28  4  0
 28 29  4  0
 29 30  4  0
 30 31  4  0
 31 32  4  0
 32 33  4  0
 33 34  4  0
 34 35  4  0
 35 36  4  0
 36 37  4  0
 37 38  4  0
 38 39  4  0
 39 40  4  0
 40 41  4  0
 41 42  4  0
 42 43  4  0
 43 44  4  0
 44 45  4  0
 23 46  4  0
 46 47  4  0
 47 48  4  0
 48 49  4  0
 49 50  4  0
 50 51  4  0
 51 52  4  0
 12 53  4  0
 53 54  4  0
 54 55  4  0
 55 56  4  0
 56 57  4  0
 57 58  4  0
 58 59  4  0
 59 60  4  0
 60 61  4  0
 61 62  4  0
 62  1  4  0
 61  4  4  0
 59  6  4  0
 57  8  4  0
 55 10  4  0
 52 13  4  0
 51 16  4  0
 49 18  4  0
 47 20  4  0
 45 24  4  0
 43 26  4  0
 41 28  4  0
 39 30  4  0
 37 32  4  0
  1 63  1  0
  2 64  1  0
  3 65  1  0
  7 66  1  0
  9 67  1  0
 11 68  1  0
 14 69  1  0
 15 70  1  0
 17 71  1  0
 19 72  1  0
 21 73  1  0
 22 74  1  0
 25 75  1  0
 27 76  1  0
 29 77  1  0
 33 78  1  0
 34 79  1  0
 35 80  1  0
 36 81  1  0
 38 82  1  0
 40 83  1  0
 44 84  1  0
 45 85  1  0
 46 86  1  0
 48 87  1  0
 50 88  1  0
 52 89  1  0
 53 90  1  0
 54 91  1  0
 58 92  1  0
 60 93  1  0
 62 94  1  0
M  END
