
     RDKit          3D

 94107  0  0  0  0  0  0  0  0999 V2000
   17.5761   -2.1601   -1.5908 C   0  0  0  0  0  0  0  0  0  0  0  0
   17.6116   -1.2854   -2.6706 C   0  0  0  0  0  0  0  0  0  0  0  0
   16.4739   -0.5434   -3.0027 C   0  0  0  0  0  0  0  0  0  0  0  0
   15.2930   -0.6522   -2.2804 C   0  0  0  0  0  0  0  0  0  0  0  0
   14.2271    0.0843   -2.6416 N   0  0  0  0  0  0  0  0  0  0  0  0
   13.0868   -0.0247   -1.9396 C   0  0  0  0  0  0  0  0  0  0  0  0
   11.9861    0.7317   -2.3083 C   0  0  0  0  0  0  0  0  0  0  0  0
   10.7670    0.6572   -1.6086 C   0  0  0  0  0  0  0  0  0  0  0  0
    9.6531    1.4192   -1.9774 C   0  0  0  0  0  0  0  0  0  0  0  0
    8.4605    1.3145   -1.2537 C   0  0  0  0  0  0  0  0  0  0  0  0
    7.3216    2.0614   -1.5911 C   0  0  0  0  0  0  0  0  0  0  0  0
    6.1501    1.9315   -0.8447 C   0  0  0  0  0  0  0  0  0  0  0  0
    6.0928    1.0575    0.2481 C   0  0  0  0  0  0  0  0  0  0  0  0
    4.8631    0.9162    1.0455 C   0  0  0  0  0  0  0  0  0  0  0  0
    4.8838    1.0742    2.4381 C   0  0  0  0  0  0  0  0  0  0  0  0
    3.7164    0.9420    3.1962 C   0  0  0  0  0  0  0  0  0  0  0  0
    2.4916    0.6461    2.5815 C   0  0  0  0  0  0  0  0  0  0  0  0
    1.3097    0.5095    3.3284 C   0  0  0  0  0  0  0  0  0  0  0  0
    0.0835    0.2111    2.7108 C   0  0  0  0  0  0  0  0  0  0  0  0
   -1.0989    0.0746    3.4573 C   0  0  0  0  0  0  0  0  0  0  0  0
   -2.3241   -0.2236    2.8392 C   0  0  0  0  0  0  0  0  0  0  0  0
   -3.5043   -0.3577    3.5834 C   0  0  0  0  0  0  0  0  0  0  0  0
   -4.7166   -0.6530    2.9536 C   0  0  0  0  0  0  0  0  0  0  0  0
   -4.7857   -0.8241    1.5643 C   0  0  0  0  0  0  0  0  0  0  0  0
   -6.0631   -1.1341    0.9026 C   0  0  0  0  0  0  0  0  0  0  0  0
   -7.1958   -0.3239    1.1030 C   0  0  0  0  0  0  0  0  0  0  0  0
   -8.4202   -0.5850    0.5005 C   0  0  0  0  0  0  0  0  0  0  0  0
   -9.4608    0.2331    0.7391 N   0  0  0  0  0  0  0  0  0  0  0  0
  -10.6441   -0.0211    0.1557 C   0  0  0  0  0  0  0  0  0  0  0  0
  -11.7184    0.8198    0.3986 C   0  0  0  0  0  0  0  0  0  0  0  0
  -12.9799    0.5997   -0.1861 C   0  0  0  0  0  0  0  0  0  0  0  0
  -14.0671    1.4467    0.0567 C   0  0  0  0  0  0  0  0  0  0  0  0
  -15.3042    1.1917   -0.5448 C   0  0  0  0  0  0  0  0  0  0  0  0
  -16.4210    2.0185   -0.3263 C   0  0  0  0  0  0  0  0  0  0  0  0
  -17.6378    1.7343   -0.9422 C   0  0  0  0  0  0  0  0  0  0  0  0
  -17.7423    0.6267   -1.7754 C   0  0  0  0  0  0  0  0  0  0  0  0
  -16.6288   -0.1915   -1.9887 C   0  0  0  0  0  0  0  0  0  0  0  0
  -15.4042    0.0686   -1.3877 C   0  0  0  0  0  0  0  0  0  0  0  0
  -14.3639   -0.7501   -1.6261 N   0  0  0  0  0  0  0  0  0  0  0  0
  -13.1812   -0.4944   -1.0424 C   0  0  0  0  0  0  0  0  0  0  0  0
  -12.1068   -1.3351   -1.2853 C   0  0  0  0  0  0  0  0  0  0  0  0
  -10.8454   -1.1148   -0.7007 C   0  0  0  0  0  0  0  0  0  0  0  0
   -9.7582   -1.9613   -0.9439 C   0  0  0  0  0  0  0  0  0  0  0  0
   -8.5215   -1.7056   -0.3423 C   0  0  0  0  0  0  0  0  0  0  0  0
   -7.4070   -2.5301   -0.5606 C   0  0  0  0  0  0  0  0  0  0  0  0
   -6.1899   -2.2438    0.0580 C   0  0  0  0  0  0  0  0  0  0  0  0
   -3.5991   -0.6891    0.8233 C   0  0  0  0  0  0  0  0  0  0  0  0
   -2.3704   -0.3909    1.4410 C   0  0  0  0  0  0  0  0  0  0  0  0
   -1.1877   -0.2536    0.6952 C   0  0  0  0  0  0  0  0  0  0  0  0
    0.0386    0.0452    1.3129 C   0  0  0  0  0  0  0  0  0  0  0  0
    1.2212    0.1823    0.5664 C   0  0  0  0  0  0  0  0  0  0  0  0
    2.4478    0.4817    1.1830 C   0  0  0  0  0  0  0  0  0  0  0  0
    3.6323    0.6191    0.4352 C   0  0  0  0  0  0  0  0  0  0  0  0
    7.2490    0.3200    0.5632 C   0  0  0  0  0  0  0  0  0  0  0  0
    8.4295    0.4294   -0.1620 C   0  0  0  0  0  0  0  0  0  0  0  0
    9.4962   -0.3064    0.1984 N   0  0  0  0  0  0  0  0  0  0  0  0
   10.6368   -0.1986   -0.5037 C   0  0  0  0  0  0  0  0  0  0  0  0
   11.7374   -0.9553   -0.1350 C   0  0  0  0  0  0  0  0  0  0  0  0
   12.9565   -0.8810   -0.8347 C   0  0  0  0  0  0  0  0  0  0  0  0
   14.0699   -1.6435   -0.4652 C   0  0  0  0  0  0  0  0  0  0  0  0
   15.2632   -1.5396   -1.1879 C   0  0  0  0  0  0  0  0  0  0  0  0
   16.4041   -2.2887   -0.8487 C   0  0  0  0  0  0  0  0  0  0  0  0
   18.4570   -2.7398   -1.3272 H   0  0  0  0  0  0  0  0  0  0  0  0
   18.5199   -1.1760   -3.2575 H   0  0  0  0  0  0  0  0  0  0  0  0
   16.5091    0.1389   -3.8488 H   0  0  0  0  0  0  0  0  0  0  0  0
   12.0849    1.3958   -3.1644 H   0  0  0  0  0  0  0  0  0  0  0  0
    9.7150    2.0940   -2.8282 H   0  0  0  0  0  0  0  0  0  0  0  0
    7.3398    2.7505   -2.4323 H   0  0  0  0  0  0  0  0  0  0  0  0
    5.2827    2.5306   -1.1153 H   0  0  0  0  0  0  0  0  0  0  0  0
    5.8147    1.3138    2.9488 H   0  0  0  0  0  0  0  0  0  0  0  0
    3.7754    1.0744    4.2743 H   0  0  0  0  0  0  0  0  0  0  0  0
    1.3450    0.6370    4.4089 H   0  0  0  0  0  0  0  0  0  0  0  0
   -1.0657    0.2035    4.5375 H   0  0  0  0  0  0  0  0  0  0  0  0
   -3.4926   -0.2343    4.6642 H   0  0  0  0  0  0  0  0  0  0  0  0
   -5.6110   -0.7586    3.5648 H   0  0  0  0  0  0  0  0  0  0  0  0
   -7.1238    0.5525    1.7451 H   0  0  0  0  0  0  0  0  0  0  0  0
  -11.5647    1.6685    1.0618 H   0  0  0  0  0  0  0  0  0  0  0  0
  -13.9504    2.3050    0.7144 H   0  0  0  0  0  0  0  0  0  0  0  0
  -16.3467    2.8869    0.3243 H   0  0  0  0  0  0  0  0  0  0  0  0
  -18.4997    2.3743   -0.7722 H   0  0  0  0  0  0  0  0  0  0  0  0
  -18.6859    0.3938   -2.2618 H   0  0  0  0  0  0  0  0  0  0  0  0
  -16.7181   -1.0563   -2.6419 H   0  0  0  0  0  0  0  0  0  0  0  0
  -12.2604   -2.1836   -1.9486 H   0  0  0  0  0  0  0  0  0  0  0  0
   -9.8750   -2.8194   -1.6019 H   0  0  0  0  0  0  0  0  0  0  0  0
   -7.4796   -3.4004   -1.2086 H   0  0  0  0  0  0  0  0  0  0  0  0
   -5.3412   -2.9033   -0.1139 H   0  0  0  0  0  0  0  0  0  0  0  0
   -3.6344   -0.8050   -0.2590 H   0  0  0  0  0  0  0  0  0  0  0  0
   -1.2213   -0.3807   -0.3854 H   0  0  0  0  0  0  0  0  0  0  0  0
    1.1876    0.0531   -0.5140 H   0  0  0  0  0  0  0  0  0  0  0  0
    3.5962    0.4790   -0.6441 H   0  0  0  0  0  0  0  0  0  0  0  0
    7.2318   -0.3767    1.3998 H   0  0  0  0  0  0  0  0  0  0  0  0
   11.6387   -1.6197    0.7209 H   0  0  0  0  0  0  0  0  0  0  0  0
   14.0074   -2.3183    0.3855 H   0  0  0  0  0  0  0  0  0  0  0  0
   16.3837   -2.9750   -0.0052 H   0  0  0  0  0  0  0  0  0  0  0  0
  1  2  4  0
  2  3  4  0
  3  4  4  0
  4  5  4  0
  5  6  4  0
  6  7  4  0
  7  8  4  0
  8  9  4  0
  9 10  4  0
 10 11  4  0
 11 12  4  0
 12 13  4  0
 13 14  1  0
 14 15  4  0
 15 16  4  0
 16 17  4  0
 17 18  4  0
 18 19  4  0
 19 20  4  0
 20 21  4  0
 21 22  4  0
 22 23  4  0
 23 24  4  0
 24 25  1  0
 25 26  4  0
 26 27  4  0
 27 28  4  0
 28 29  4  0
 29 30  4  0
 30 31  4  0
 31 32  4  0
 32 33  4  0
 33 34  4  0
 34 35  4  0
 35 36  4  0
 36 37  4  0
 37 38  4  0
 38 39  4  0
 39 40  4  0
 40 41  4  0
 41 42  4  0
 42 43  4  0
 43 44  4  0
 44 45  4  0
 45 46  4  0
 24 47  4  0
 47 48  4  0
 48 49  4  0
 49 50  4  0
 50 51  4  0
 51 52  4  0
 52 53  4  0
 13 54  4  0
 54 55  4  0
 55 56  4  0
 56 57  4  0
 57 58  4  0
 58 59  4  0
 59 60  4  0
 60 61  4  0
 61 62  4  0
 62  1  4  0
 61  4  4  0
 59  6  4  0
 57  8  4  0
 55 10  4  0
 53 14  4  0
 52 17  4  0
 50 19  4  0
 48 21  4  0
 46 25  4  0
 44 27  4  0
 42 29  4  0
 40 31  4  0
 38 33  4  0
  1 63  1  0
  2 64  1  0
  3 65  1  0
  7 66  1  0
  9 67  1  0
 11 68  1  0
 12 69  1  0
 15 70  1  0
 16 71  1  0
 18 72  1  0
 20 73  1  0
 22 74  1  0
 23 75  1  0
 26 76  1  0
 30 77  1  0
 32 78  1  0
 34 79  1  0
 35 80  1  0
 36 81  1  0
 37 82  1  0
 41 83  1  0
 43 84  1  0
 45 85  1  0
 46 86  1  0
 47 87  1  0
 49 88  1  0
 51 89  1  0
 53 90  1  0
 54 91  1  0
 58 92  1  0
 60 93  1  0
 62 94  1  0
M  END
