
     RDKit          3D

 90103  0  0  0  0  0  0  0  0999 V2000
  -11.1842   -2.0689    0.7548 C   0  0  0  0  0  0  0  0  0  0  0  0
  -10.0979   -2.8666    0.4550 C   0  0  0  0  0  0  0  0  0  0  0  0
   -8.8297   -2.3005    0.3185 C   0  0  0  0  0  0  0  0  0  0  0  0
   -8.6250   -0.8875    0.4697 C   0  0  0  0  0  0  0  0  0  0  0  0
   -9.7298   -0.0698    0.8078 C   0  0  0  0  0  0  0  0  0  0  0  0
  -10.9982   -0.7012    0.9320 C   0  0  0  0  0  0  0  0  0  0  0  0
   -9.5307    1.3273    1.0220 C   0  0  0  0  0  0  0  0  0  0  0  0
  -10.5806    2.1797    1.4573 C   0  0  0  0  0  0  0  0  0  0  0  0
  -10.4110    3.5430    1.6674 C   0  0  0  0  0  0  0  0  0  0  0  0
   -9.1748    4.1105    1.4393 C   0  0  0  0  0  0  0  0  0  0  0  0
   -8.1078    3.3215    1.0067 C   0  0  0  0  0  0  0  0  0  0  0  0
   -8.2494    1.9095    0.7995 C   0  0  0  0  0  0  0  0  0  0  0  0
   -7.1323    1.1218    0.3752 C   0  0  0  0  0  0  0  0  0  0  0  0
   -5.9161    1.8556    0.0648 C   0  0  0  0  0  0  0  0  0  0  0  0
   -4.7232    1.2826   -0.5894 C   0  0  0  0  0  0  0  0  0  0  0  0
   -4.7493    0.9467   -1.9502 C   0  0  0  0  0  0  0  0  0  0  0  0
   -3.6114    0.4373   -2.5813 C   0  0  0  0  0  0  0  0  0  0  0  0
   -2.4144    0.2608   -1.8707 C   0  0  0  0  0  0  0  0  0  0  0  0
   -1.2633   -0.2525   -2.4911 C   0  0  0  0  0  0  0  0  0  0  0  0
   -0.0643   -0.4290   -1.7800 C   0  0  0  0  0  0  0  0  0  0  0  0
    1.0865   -0.9439   -2.4004 C   0  0  0  0  0  0  0  0  0  0  0  0
    2.2850   -1.1211   -1.6896 C   0  0  0  0  0  0  0  0  0  0  0  0
    3.4330   -1.6381   -2.3092 C   0  0  0  0  0  0  0  0  0  0  0  0
    4.6188   -1.8074   -1.5899 C   0  0  0  0  0  0  0  0  0  0  0  0
    4.6910   -1.4530   -0.2355 C   0  0  0  0  0  0  0  0  0  0  0  0
    5.9348   -1.6668    0.5304 C   0  0  0  0  0  0  0  0  0  0  0  0
    7.1610   -0.9048    0.3603 C   0  0  0  0  0  0  0  0  0  0  0  0
    7.3316    0.3167   -0.4216 C   0  0  0  0  0  0  0  0  0  0  0  0
    6.2638    1.0623   -0.9898 C   0  0  0  0  0  0  0  0  0  0  0  0
    6.4362    2.1938   -1.7869 C   0  0  0  0  0  0  0  0  0  0  0  0
    7.7085    2.6591   -2.0404 C   0  0  0  0  0  0  0  0  0  0  0  0
    8.8037    2.0196   -1.4674 C   0  0  0  0  0  0  0  0  0  0  0  0
    8.6300    0.8612   -0.6374 C   0  0  0  0  0  0  0  0  0  0  0  0
    9.7680    0.2795   -0.0292 C   0  0  0  0  0  0  0  0  0  0  0  0
   11.0340    0.8583   -0.3208 C   0  0  0  0  0  0  0  0  0  0  0  0
   11.1879    1.9647   -1.1508 C   0  0  0  0  0  0  0  0  0  0  0  0
   10.0713    2.5470   -1.7169 C   0  0  0  0  0  0  0  0  0  0  0  0
    9.6038   -0.8341    0.8486 C   0  0  0  0  0  0  0  0  0  0  0  0
   10.6946   -1.3968    1.5640 C   0  0  0  0  0  0  0  0  0  0  0  0
   10.5585   -2.4837    2.4194 C   0  0  0  0  0  0  0  0  0  0  0  0
    9.3157   -3.0585    2.5853 C   0  0  0  0  0  0  0  0  0  0  0  0
    8.2090   -2.5497    1.9039 C   0  0  0  0  0  0  0  0  0  0  0  0
    8.3169   -1.4180    1.0300 C   0  0  0  0  0  0  0  0  0  0  0  0
    6.9960   -3.1908    2.0994 C   0  0  0  0  0  0  0  0  0  0  0  0
    5.8803   -2.7680    1.4080 C   0  0  0  0  0  0  0  0  0  0  0  0
    3.5346   -0.9501    0.3878 C   0  0  0  0  0  0  0  0  0  0  0  0
    2.3348   -0.7743   -0.3239 C   0  0  0  0  0  0  0  0  0  0  0  0
    1.1838   -0.2596    0.2957 C   0  0  0  0  0  0  0  0  0  0  0  0
   -0.0151   -0.0826   -0.4155 C   0  0  0  0  0  0  0  0  0  0  0  0
   -1.1660    0.4322    0.2050 C   0  0  0  0  0  0  0  0  0  0  0  0
   -2.3654    0.6078   -0.5049 C   0  0  0  0  0  0  0  0  0  0  0  0
   -3.5176    1.1205    0.1171 C   0  0  0  0  0  0  0  0  0  0  0  0
   -5.8273    3.2432    0.2936 C   0  0  0  0  0  0  0  0  0  0  0  0
   -6.9010    3.9620    0.7755 C   0  0  0  0  0  0  0  0  0  0  0  0
   -7.3289   -0.3232    0.2940 C   0  0  0  0  0  0  0  0  0  0  0  0
   -6.2876   -1.2645    0.0728 C   0  0  0  0  0  0  0  0  0  0  0  0
   -6.4893   -2.6380   -0.0630 C   0  0  0  0  0  0  0  0  0  0  0  0
   -7.7640   -3.1514    0.0412 C   0  0  0  0  0  0  0  0  0  0  0  0
  -12.1738   -2.5049    0.8593 H   0  0  0  0  0  0  0  0  0  0  0  0
  -10.2505   -3.9364    0.3321 H   0  0  0  0  0  0  0  0  0  0  0  0
  -11.8921   -0.1315    1.1669 H   0  0  0  0  0  0  0  0  0  0  0  0
  -11.5749    1.7940    1.6609 H   0  0  0  0  0  0  0  0  0  0  0  0
  -11.2436    4.1538    2.0050 H   0  0  0  0  0  0  0  0  0  0  0  0
   -9.0543    5.1799    1.5989 H   0  0  0  0  0  0  0  0  0  0  0  0
   -5.6641    1.0772   -2.5256 H   0  0  0  0  0  0  0  0  0  0  0  0
   -3.6702    0.1804   -3.6368 H   0  0  0  0  0  0  0  0  0  0  0  0
   -1.3021   -0.5196   -3.5458 H   0  0  0  0  0  0  0  0  0  0  0  0
    1.0499   -1.2119   -3.4548 H   0  0  0  0  0  0  0  0  0  0  0  0
    3.4150   -1.9164   -3.3607 H   0  0  0  0  0  0  0  0  0  0  0  0
    5.4939   -2.2145   -2.0936 H   0  0  0  0  0  0  0  0  0  0  0  0
    5.2311    0.8014   -0.8012 H   0  0  0  0  0  0  0  0  0  0  0  0
    5.5702    2.7057   -2.1975 H   0  0  0  0  0  0  0  0  0  0  0  0
    7.8326    3.5393   -2.6664 H   0  0  0  0  0  0  0  0  0  0  0  0
   11.9507    0.4492    0.0930 H   0  0  0  0  0  0  0  0  0  0  0  0
   12.1770    2.3704   -1.3445 H   0  0  0  0  0  0  0  0  0  0  0  0
   10.2001    3.4200   -2.3528 H   0  0  0  0  0  0  0  0  0  0  0  0
   11.6965   -0.9865    1.4824 H   0  0  0  0  0  0  0  0  0  0  0  0
   11.4220   -2.8766    2.9487 H   0  0  0  0  0  0  0  0  0  0  0  0
    9.2213   -3.9141    3.2508 H   0  0  0  0  0  0  0  0  0  0  0  0
    6.9084   -4.0501    2.7602 H   0  0  0  0  0  0  0  0  0  0  0  0
    4.9521   -3.3258    1.5286 H   0  0  0  0  0  0  0  0  0  0  0  0
    3.5800   -0.6834    1.4429 H   0  0  0  0  0  0  0  0  0  0  0  0
    1.2230    0.0083    1.3502 H   0  0  0  0  0  0  0  0  0  0  0  0
   -1.1290    0.6997    1.2597 H   0  0  0  0  0  0  0  0  0  0  0  0
   -3.4865    1.3902    1.1720 H   0  0  0  0  0  0  0  0  0  0  0  0
   -4.9069    3.7779    0.0605 H   0  0  0  0  0  0  0  0  0  0  0  0
   -6.7879    5.0325    0.9298 H   0  0  0  0  0  0  0  0  0  0  0  0
   -5.2509   -0.9591    0.0287 H   0  0  0  0  0  0  0  0  0  0  0  0
   -5.6431   -3.2957   -0.2425 H   0  0  0  0  0  0  0  0  0  0  0  0
   -7.9112   -4.2229   -0.0701 H   0  0  0  0  0  0  0  0  0  0  0  0
  1  2  4  0
  2  3  4  0
  3  4  4  0
  4  5  4  0
  5  6  4  0
  5  7  4  0
  7  8  4  0
  8  9  4  0
  9 10  4  0
 10 11  4  0
 11 12  4  0
 12 13  4  0
 13 14  4  0
 14 15  1  0
 15 16  4  0
 16 17  4  0
 17 18  4  0
 18 19  4  0
 19 20  4  0
 20 21  4  0
 21 22  4  0
 22 23  4  0
 23 24  4  0
 24 25  4  0
 25 26  1  0
 26 27  4  0
 27 28  4  0
 28 29  4  0
 29 30  4  0
 30 31  4  0
 31 32  4  0
 32 33  4  0
 33 34  4  0
 34 35  4  0
 35 36  4  0
 36 37  4  0
 34 38  4  0
 38 39  4  0
 39 40  4  0
 40 41  4  0
 41 42  4  0
 42 43  4  0
 42 44  4  0
 44 45  4  0
 25 46  4  0
 46 47  4  0
 47 48  4  0
 48 49  4  0
 49 50  4  0
 50 51  4  0
 51 52  4  0
 14 53  4  0
 53 54  4  0
 13 55  4  0
 55 56  4  0
 56 57  4  0
 57 58  4  0
  6  1  4  0
 12  7  4  0
 52 15  4  0
 58  3  4  0
 55  4  4  0
 54 11  4  0
 51 18  4  0
 49 20  4  0
 47 22  4  0
 45 26  4  0
 43 27  4  0
 33 28  4  0
 43 38  4  0
 37 32  4  0
  1 59  1  0
  2 60  1  0
  6 61  1  0
  8 62  1  0
  9 63  1  0
 10 64  1  0
 16 65  1  0
 17 66  1  0
 19 67  1  0
 21 68  1  0
 23 69  1  0
 24 70  1  0
 29 71  1  0
 30 72  1  0
 31 73  1  0
 35 74  1  0
 36 75  1  0
 37 76  1  0
 39 77  1  0
 40 78  1  0
 41 79  1  0
 44 80  1  0
 45 81  1  0
 46 82  1  0
 48 83  1  0
 50 84  1  0
 52 85  1  0
 53 86  1  0
 54 87  1  0
 56 88  1  0
 57 89  1  0
 58 90  1  0
M  END
