
     RDKit          3D

 90103  0  0  0  0  0  0  0  0999 V2000
   11.9854    3.0378   -1.8511 C   0  0  0  0  0  0  0  0  0  0  0  0
   12.4796    1.9247   -2.5063 C   0  0  0  0  0  0  0  0  0  0  0  0
   11.7853    0.7151   -2.4554 C   0  0  0  0  0  0  0  0  0  0  0  0
   10.5574    0.6077   -1.7284 C   0  0  0  0  0  0  0  0  0  0  0  0
   10.0392    1.7417   -1.0519 C   0  0  0  0  0  0  0  0  0  0  0  0
   10.7906    2.9439   -1.1403 C   0  0  0  0  0  0  0  0  0  0  0  0
    8.8081    1.6328   -0.3238 C   0  0  0  0  0  0  0  0  0  0  0  0
    8.2380    2.7265    0.3718 C   0  0  0  0  0  0  0  0  0  0  0  0
    7.0461    2.6260    1.0773 C   0  0  0  0  0  0  0  0  0  0  0  0
    6.3756    1.4166    1.1128 C   0  0  0  0  0  0  0  0  0  0  0  0
    6.8754    0.2820    0.4483 C   0  0  0  0  0  0  0  0  0  0  0  0
    8.1095    0.3921   -0.2805 C   0  0  0  0  0  0  0  0  0  0  0  0
    8.6380   -0.7381   -0.9621 C   0  0  0  0  0  0  0  0  0  0  0  0
    7.9030   -1.9429   -0.8855 C   0  0  0  0  0  0  0  0  0  0  0  0
    6.7080   -2.0497   -0.1801 C   0  0  0  0  0  0  0  0  0  0  0  0
    6.1772   -0.9510    0.4930 C   0  0  0  0  0  0  0  0  0  0  0  0
    4.9083   -1.1377    1.2168 C   0  0  0  0  0  0  0  0  0  0  0  0
    4.9027   -1.5280    2.5613 C   0  0  0  0  0  0  0  0  0  0  0  0
    3.6979   -1.7123    3.2440 C   0  0  0  0  0  0  0  0  0  0  0  0
    2.4689   -1.5138    2.5967 C   0  0  0  0  0  0  0  0  0  0  0  0
    1.2493   -1.6970    3.2688 C   0  0  0  0  0  0  0  0  0  0  0  0
    0.0183   -1.5007    2.6201 C   0  0  0  0  0  0  0  0  0  0  0  0
   -1.2020   -1.6861    3.2920 C   0  0  0  0  0  0  0  0  0  0  0  0
   -2.4326   -1.4920    2.6433 C   0  0  0  0  0  0  0  0  0  0  0  0
   -3.6511   -1.6789    3.3139 C   0  0  0  0  0  0  0  0  0  0  0  0
   -4.8669   -1.4829    2.6540 C   0  0  0  0  0  0  0  0  0  0  0  0
   -4.8941   -1.0927    1.3097 C   0  0  0  0  0  0  0  0  0  0  0  0
   -6.1746   -0.8906    0.6110 C   0  0  0  0  0  0  0  0  0  0  0  0
   -6.7340   -1.9834   -0.0486 C   0  0  0  0  0  0  0  0  0  0  0  0
   -7.9423   -1.8621   -0.7285 C   0  0  0  0  0  0  0  0  0  0  0  0
   -8.6634   -0.6480   -0.7912 C   0  0  0  0  0  0  0  0  0  0  0  0
   -9.9086   -0.5270   -1.4928 C   0  0  0  0  0  0  0  0  0  0  0  0
  -10.5242   -1.6053   -2.1831 C   0  0  0  0  0  0  0  0  0  0  0  0
  -11.7345   -1.4757   -2.8611 C   0  0  0  0  0  0  0  0  0  0  0  0
  -12.3821   -0.2538   -2.8755 C   0  0  0  0  0  0  0  0  0  0  0  0
  -11.8257    0.8425   -2.2147 C   0  0  0  0  0  0  0  0  0  0  0  0
  -10.5829    0.7207   -1.5158 C   0  0  0  0  0  0  0  0  0  0  0  0
  -10.0360    1.8487   -0.8519 C   0  0  0  0  0  0  0  0  0  0  0  0
  -10.7755    3.0596   -0.9232 C   0  0  0  0  0  0  0  0  0  0  0  0
  -11.9852    3.1673   -1.6060 C   0  0  0  0  0  0  0  0  0  0  0  0
  -12.5071    2.0601   -2.2498 C   0  0  0  0  0  0  0  0  0  0  0  0
   -8.7897    1.7255   -0.1525 C   0  0  0  0  0  0  0  0  0  0  0  0
   -8.1900    2.8131    0.5278 C   0  0  0  0  0  0  0  0  0  0  0  0
   -6.9834    2.6985    1.2058 C   0  0  0  0  0  0  0  0  0  0  0  0
   -6.3276    1.4808    1.2287 C   0  0  0  0  0  0  0  0  0  0  0  0
   -6.8572    0.3514    0.5783 C   0  0  0  0  0  0  0  0  0  0  0  0
   -8.1057    0.4763   -0.1231 C   0  0  0  0  0  0  0  0  0  0  0  0
   -3.6752   -0.9084    0.6379 C   0  0  0  0  0  0  0  0  0  0  0  0
   -2.4440   -1.1020    1.2883 C   0  0  0  0  0  0  0  0  0  0  0  0
   -1.2238   -0.9157    0.6176 C   0  0  0  0  0  0  0  0  0  0  0  0
    0.0072   -1.1106    1.2666 C   0  0  0  0  0  0  0  0  0  0  0  0
    1.2273   -0.9259    0.5943 C   0  0  0  0  0  0  0  0  0  0  0  0
    2.4582   -1.1231    1.2418 C   0  0  0  0  0  0  0  0  0  0  0  0
    3.6787   -0.9407    0.5684 C   0  0  0  0  0  0  0  0  0  0  0  0
    9.8689   -0.6319   -1.6907 C   0  0  0  0  0  0  0  0  0  0  0  0
   10.4560   -1.7172   -2.3946 C   0  0  0  0  0  0  0  0  0  0  0  0
   11.6523   -1.6018   -3.0995 C   0  0  0  0  0  0  0  0  0  0  0  0
   12.3136   -0.3875   -3.1285 C   0  0  0  0  0  0  0  0  0  0  0  0
   12.5246    3.9804   -1.8898 H   0  0  0  0  0  0  0  0  0  0  0  0
   13.4131    2.0110   -3.0578 H   0  0  0  0  0  0  0  0  0  0  0  0
   10.4581    3.8535   -0.6493 H   0  0  0  0  0  0  0  0  0  0  0  0
    8.7150    3.7017    0.3822 H   0  0  0  0  0  0  0  0  0  0  0  0
    6.6424    3.4904    1.5973 H   0  0  0  0  0  0  0  0  0  0  0  0
    5.4444    1.3743    1.6744 H   0  0  0  0  0  0  0  0  0  0  0  0
    8.2436   -2.8475   -1.3800 H   0  0  0  0  0  0  0  0  0  0  0  0
    6.1894   -3.0068   -0.1599 H   0  0  0  0  0  0  0  0  0  0  0  0
    5.8428   -1.6889    3.0855 H   0  0  0  0  0  0  0  0  0  0  0  0
    3.7294   -2.0143    4.2885 H   0  0  0  0  0  0  0  0  0  0  0  0
    1.2580   -1.9990    4.3146 H   0  0  0  0  0  0  0  0  0  0  0  0
   -1.1934   -1.9879    4.3379 H   0  0  0  0  0  0  0  0  0  0  0  0
   -3.6647   -1.9803    4.3590 H   0  0  0  0  0  0  0  0  0  0  0  0
   -5.7989   -1.6332    3.1957 H   0  0  0  0  0  0  0  0  0  0  0  0
   -6.2277   -2.9472   -0.0374 H   0  0  0  0  0  0  0  0  0  0  0  0
   -8.3053   -2.7629   -1.2138 H   0  0  0  0  0  0  0  0  0  0  0  0
  -10.0682   -2.5903   -2.2107 H   0  0  0  0  0  0  0  0  0  0  0  0
  -12.1663   -2.3302   -3.3751 H   0  0  0  0  0  0  0  0  0  0  0  0
  -13.3263   -0.1656   -3.4080 H   0  0  0  0  0  0  0  0  0  0  0  0
  -10.4212    3.9647   -0.4393 H   0  0  0  0  0  0  0  0  0  0  0  0
  -12.5148    4.1158   -1.6319 H   0  0  0  0  0  0  0  0  0  0  0  0
  -13.4521    2.1571   -2.7794 H   0  0  0  0  0  0  0  0  0  0  0  0
   -8.6542    3.7942    0.5473 H   0  0  0  0  0  0  0  0  0  0  0  0
   -6.5570    3.5587    1.7149 H   0  0  0  0  0  0  0  0  0  0  0  0
   -5.3845    1.4275    1.7692 H   0  0  0  0  0  0  0  0  0  0  0  0
   -3.6925   -0.6065   -0.4085 H   0  0  0  0  0  0  0  0  0  0  0  0
   -1.2333   -0.6147   -0.4287 H   0  0  0  0  0  0  0  0  0  0  0  0
    1.2185   -0.6245   -0.4518 H   0  0  0  0  0  0  0  0  0  0  0  0
    3.6798   -0.6380   -0.4780 H   0  0  0  0  0  0  0  0  0  0  0  0
    9.9879   -2.6968   -2.4119 H   0  0  0  0  0  0  0  0  0  0  0  0
   12.0622   -2.4612   -3.6231 H   0  0  0  0  0  0  0  0  0  0  0  0
   13.2464   -0.3102   -3.6824 H   0  0  0  0  0  0  0  0  0  0  0  0
  1  2  4  0
  2  3  4  0
  3  4  4  0
  4  5  4  0
  5  6  4  0
  5  7  4  0
  7  8  4  0
  8  9  4  0
  9 10  4  0
 10 11  4  0
 11 12  4  0
 12 13  4  0
 13 14  4  0
 14 15  4  0
 15 16  4  0
 16 17  1  0
 17 18  4  0
 18 19  4  0
 19 20  4  0
 20 21  4  0
 21 22  4  0
 22 23  4  0
 23 24  4  0
 24 25  4  0
 25 26  4  0
 26 27  4  0
 27 28  1  0
 28 29  4  0
 29 30  4  0
 30 31  4  0
 31 32  4  0
 32 33  4  0
 33 34  4  0
 34 35  4  0
 35 36  4  0
 36 37  4  0
 37 38  4  0
 38 39  4  0
 39 40  4  0
 40 41  4  0
 38 42  4  0
 42 43  4  0
 43 44  4  0
 44 45  4  0
 45 46  4  0
 46 47  4  0
 27 48  4  0
 48 49  4  0
 49 50  4  0
 50 51  4  0
 51 52  4  0
 52 53  4  0
 53 54  4  0
 13 55  4  0
 55 56  4  0
 56 57  4  0
 57 58  4  0
  6  1  4  0
 12  7  4  0
 54 17  4  0
 58  3  4  0
 55  4  4  0
 16 11  4  0
 53 20  4  0
 51 22  4  0
 49 24  4  0
 46 28  4  0
 47 31  4  0
 37 32  4  0
 47 42  4  0
 41 36  4  0
  1 59  1  0
  2 60  1  0
  6 61  1  0
  8 62  1  0
  9 63  1  0
 10 64  1  0
 14 65  1  0
 15 66  1  0
 18 67  1  0
 19 68  1  0
 21 69  1  0
 23 70  1  0
 25 71  1  0
 26 72  1  0
 29 73  1  0
 30 74  1  0
 33 75  1  0
 34 76  1  0
 35 77  1  0
 39 78  1  0
 40 79  1  0
 41 80  1  0
 43 81  1  0
 44 82  1  0
 45 83  1  0
 48 84  1  0
 50 85  1  0
 52 86  1  0
 54 87  1  0
 56 88  1  0
 57 89  1  0
 58 90  1  0
M  END
