
     RDKit          3D

 96109  0  0  0  0  0  0  0  0999 V2000
  -15.5473    4.8585   -0.9735 C   0  0  0  0  0  0  0  0  0  0  0  0
  -15.2188    3.5090   -1.1110 C   0  0  0  0  0  0  0  0  0  0  0  0
  -13.9371    3.0433   -0.7740 C   0  0  0  0  0  0  0  0  0  0  0  0
  -13.5913    1.6884   -0.9067 C   0  0  0  0  0  0  0  0  0  0  0  0
  -12.3085    1.2248   -0.5690 C   0  0  0  0  0  0  0  0  0  0  0  0
  -11.9566   -0.1264   -0.6989 C   0  0  0  0  0  0  0  0  0  0  0  0
  -10.6679   -0.5736   -0.3561 C   0  0  0  0  0  0  0  0  0  0  0  0
  -10.2947   -1.9168   -0.4772 C   0  0  0  0  0  0  0  0  0  0  0  0
   -9.0027   -2.3219   -0.1245 C   0  0  0  0  0  0  0  0  0  0  0  0
   -8.5902   -3.6592   -0.2304 C   0  0  0  0  0  0  0  0  0  0  0  0
   -7.2935   -4.0251    0.1315 C   0  0  0  0  0  0  0  0  0  0  0  0
   -6.3871   -3.0675    0.6035 C   0  0  0  0  0  0  0  0  0  0  0  0
   -5.0162   -3.4429    0.9872 C   0  0  0  0  0  0  0  0  0  0  0  0
   -4.7800   -4.4684    1.9129 C   0  0  0  0  0  0  0  0  0  0  0  0
   -3.4780   -4.8246    2.2773 C   0  0  0  0  0  0  0  0  0  0  0  0
   -2.3722   -4.1640    1.7239 C   0  0  0  0  0  0  0  0  0  0  0  0
   -1.0578   -4.5098    2.0792 C   0  0  0  0  0  0  0  0  0  0  0  0
    0.0501   -3.8479    1.5230 C   0  0  0  0  0  0  0  0  0  0  0  0
    1.3657   -4.1928    1.8772 C   0  0  0  0  0  0  0  0  0  0  0  0
    2.4716   -3.5291    1.3205 C   0  0  0  0  0  0  0  0  0  0  0  0
    3.7843   -3.8703    1.6749 C   0  0  0  0  0  0  0  0  0  0  0  0
    4.8743   -3.1994    1.1123 C   0  0  0  0  0  0  0  0  0  0  0  0
    4.6862   -2.1706    0.1791 C   0  0  0  0  0  0  0  0  0  0  0  0
    5.8343   -1.4663   -0.4153 C   0  0  0  0  0  0  0  0  0  0  0  0
    5.9785   -1.3627   -1.8045 C   0  0  0  0  0  0  0  0  0  0  0  0
    7.0715   -0.6949   -2.3578 C   0  0  0  0  0  0  0  0  0  0  0  0
    8.0423   -0.1171   -1.5250 C   0  0  0  0  0  0  0  0  0  0  0  0
    9.1517    0.5600   -2.0428 C   0  0  0  0  0  0  0  0  0  0  0  0
   10.0978    1.1231   -1.1791 C   0  0  0  0  0  0  0  0  0  0  0  0
   11.2258    1.8117   -1.6603 C   0  0  0  0  0  0  0  0  0  0  0  0
   12.1614    2.3685   -0.7764 C   0  0  0  0  0  0  0  0  0  0  0  0
   13.2935    3.0597   -1.2403 C   0  0  0  0  0  0  0  0  0  0  0  0
   14.2269    3.6151   -0.3494 C   0  0  0  0  0  0  0  0  0  0  0  0
   15.3593    4.3065   -0.8108 C   0  0  0  0  0  0  0  0  0  0  0  0
   16.2778    4.8528    0.0870 C   0  0  0  0  0  0  0  0  0  0  0  0
   16.0761    4.7151    1.4567 C   0  0  0  0  0  0  0  0  0  0  0  0
   14.9556    4.0309    1.9308 C   0  0  0  0  0  0  0  0  0  0  0  0
   14.0222    3.4754    1.0399 C   0  0  0  0  0  0  0  0  0  0  0  0
   12.8895    2.7840    1.5010 C   0  0  0  0  0  0  0  0  0  0  0  0
   11.9565    2.2288    0.6088 C   0  0  0  0  0  0  0  0  0  0  0  0
   10.8218    1.5361    1.0682 C   0  0  0  0  0  0  0  0  0  0  0  0
    9.8890    0.9809    0.2029 C   0  0  0  0  0  0  0  0  0  0  0  0
    8.8260    0.3310    0.7093 N   0  0  0  0  0  0  0  0  0  0  0  0
    7.9210   -0.2069   -0.1276 C   0  0  0  0  0  0  0  0  0  0  0  0
    6.8221   -0.8778    0.3957 C   0  0  0  0  0  0  0  0  0  0  0  0
    3.3678   -1.8326   -0.1715 C   0  0  0  0  0  0  0  0  0  0  0  0
    2.2592   -2.4964    0.3859 C   0  0  0  0  0  0  0  0  0  0  0  0
    0.9437   -2.1518    0.0331 C   0  0  0  0  0  0  0  0  0  0  0  0
   -0.1632   -2.8148    0.5897 C   0  0  0  0  0  0  0  0  0  0  0  0
   -1.4783   -2.4686    0.2355 C   0  0  0  0  0  0  0  0  0  0  0  0
   -2.5864   -3.1300    0.7911 C   0  0  0  0  0  0  0  0  0  0  0  0
   -3.9035   -2.7836    0.4366 C   0  0  0  0  0  0  0  0  0  0  0  0
   -6.8270   -1.7344    0.6993 C   0  0  0  0  0  0  0  0  0  0  0  0
   -8.1126   -1.3413    0.3463 C   0  0  0  0  0  0  0  0  0  0  0  0
   -8.4631   -0.0484    0.4648 N   0  0  0  0  0  0  0  0  0  0  0  0
   -9.7071    0.3318    0.1246 C   0  0  0  0  0  0  0  0  0  0  0  0
  -10.0667    1.6665    0.2491 C   0  0  0  0  0  0  0  0  0  0  0  0
  -11.3493    2.1352   -0.0878 C   0  0  0  0  0  0  0  0  0  0  0  0
  -11.6941    3.4908    0.0455 C   0  0  0  0  0  0  0  0  0  0  0  0
  -12.9757    3.9569   -0.2914 C   0  0  0  0  0  0  0  0  0  0  0  0
  -13.3216    5.3119   -0.1586 C   0  0  0  0  0  0  0  0  0  0  0  0
  -14.5995    5.7591   -0.4977 C   0  0  0  0  0  0  0  0  0  0  0  0
  -16.5429    5.2050   -1.2381 H   0  0  0  0  0  0  0  0  0  0  0  0
  -15.9735    2.8207   -1.4847 H   0  0  0  0  0  0  0  0  0  0  0  0
  -14.3336    0.9845   -1.2789 H   0  0  0  0  0  0  0  0  0  0  0  0
  -12.6906   -0.8393   -1.0696 H   0  0  0  0  0  0  0  0  0  0  0  0
  -11.0102   -2.6480   -0.8454 H   0  0  0  0  0  0  0  0  0  0  0  0
   -9.2725   -4.4225   -0.5971 H   0  0  0  0  0  0  0  0  0  0  0  0
   -6.9901   -5.0655    0.0304 H   0  0  0  0  0  0  0  0  0  0  0  0
   -5.6144   -4.9945    2.3725 H   0  0  0  0  0  0  0  0  0  0  0  0
   -3.3369   -5.6231    3.0025 H   0  0  0  0  0  0  0  0  0  0  0  0
   -0.8942   -5.3075    2.8013 H   0  0  0  0  0  0  0  0  0  0  0  0
    1.5322   -4.9905    2.5991 H   0  0  0  0  0  0  0  0  0  0  0  0
    3.9727   -4.6649    2.3936 H   0  0  0  0  0  0  0  0  0  0  0  0
    5.8797   -3.4972    1.4043 H   0  0  0  0  0  0  0  0  0  0  0  0
    5.2438   -1.8148   -2.4683 H   0  0  0  0  0  0  0  0  0  0  0  0
    7.1609   -0.6323   -3.4398 H   0  0  0  0  0  0  0  0  0  0  0  0
    9.2786    0.6491   -3.1191 H   0  0  0  0  0  0  0  0  0  0  0  0
   11.3742    1.9139   -2.7335 H   0  0  0  0  0  0  0  0  0  0  0  0
   13.4522    3.1682   -2.3117 H   0  0  0  0  0  0  0  0  0  0  0  0
   15.5343    4.4245   -1.8778 H   0  0  0  0  0  0  0  0  0  0  0  0
   17.1496    5.3852   -0.2841 H   0  0  0  0  0  0  0  0  0  0  0  0
   16.7898    5.1397    2.1579 H   0  0  0  0  0  0  0  0  0  0  0  0
   14.8155    3.9339    3.0052 H   0  0  0  0  0  0  0  0  0  0  0  0
   12.7313    2.6762    2.5729 H   0  0  0  0  0  0  0  0  0  0  0  0
   10.6524    1.4217    2.1372 H   0  0  0  0  0  0  0  0  0  0  0  0
    6.7315   -0.9316    1.4795 H   0  0  0  0  0  0  0  0  0  0  0  0
    3.2003   -1.0263   -0.8842 H   0  0  0  0  0  0  0  0  0  0  0  0
    0.7780   -1.3526   -0.6873 H   0  0  0  0  0  0  0  0  0  0  0  0
   -1.6419   -1.6691   -0.4851 H   0  0  0  0  0  0  0  0  0  0  0  0
   -4.0660   -1.9901   -0.2918 H   0  0  0  0  0  0  0  0  0  0  0  0
   -6.1490   -0.9693    1.0742 H   0  0  0  0  0  0  0  0  0  0  0  0
   -9.3164    2.3607    0.6227 H   0  0  0  0  0  0  0  0  0  0  0  0
  -10.9523    4.1954    0.4181 H   0  0  0  0  0  0  0  0  0  0  0  0
  -12.5949    6.0316    0.2117 H   0  0  0  0  0  0  0  0  0  0  0  0
  -14.8531    6.8105   -0.3898 H   0  0  0  0  0  0  0  0  0  0  0  0
  1  2  4  0
  2  3  4  0
  3  4  4  0
  4  5  4  0
  5  6  4  0
  6  7  4  0
  7  8  4  0
  8  9  4  0
  9 10  4  0
 10 11  4  0
 11 12  4  0
 12 13  1  0
 13 14  4  0
 14 15  4  0
 15 16  4  0
 16 17  4  0
 17 18  4  0
 18 19  4  0
 19 20  4  0
 20 21  4  0
 21 22  4  0
 22 23  4  0
 23 24  1  0
 24 25  4  0
 25 26  4  0
 26 27  4  0
 27 28  4  0
 28 29  4  0
 29 30  4  0
 30 31  4  0
 31 32  4  0
 32 33  4  0
 33 34  4  0
 34 35  4  0
 35 36  4  0
 36 37  4  0
 37 38  4  0
 38 39  4  0
 39 40  4  0
 40 41  4  0
 41 42  4  0
 42 43  4  0
 43 44  4  0
 44 45  4  0
 23 46  4  0
 46 47  4  0
 47 48  4  0
 48 49  4  0
 49 50  4  0
 50 51  4  0
 51 52  4  0
 12 53  4  0
 53 54  4  0
 54 55  4  0
 55 56  4  0
 56 57  4  0
 57 58  4  0
 58 59  4  0
 59 60  4  0
 60 61  4  0
 61 62  4  0
 62  1  4  0
 60  3  4  0
 58  5  4  0
 56  7  4  0
 54  9  4  0
 52 13  4  0
 51 16  4  0
 49 18  4  0
 47 20  4  0
 45 24  4  0
 44 27  4  0
 42 29  4  0
 40 31  4  0
 38 33  4  0
  1 63  1  0
  2 64  1  0
  4 65  1  0
  6 66  1  0
  8 67  1  0
 10 68  1  0
 11 69  1  0
 14 70  1  0
 15 71  1  0
 17 72  1  0
 19 73  1  0
 21 74  1  0
 22 75  1  0
 25 76  1  0
 26 77  1  0
 28 78  1  0
 30 79  1  0
 32 80  1  0
 34 81  1  0
 35 82  1  0
 36 83  1  0
 37 84  1  0
 39 85  1  0
 41 86  1  0
 45 87  1  0
 46 88  1  0
 48 89  1  0
 50 90  1  0
 52 91  1  0
 53 92  1  0
 57 93  1  0
 59 94  1  0
 61 95  1  0
 62 96  1  0
M  END
