
     RDKit          3D

 96109  0  0  0  0  0  0  0  0999 V2000
  -17.0768    2.4297   -2.8942 C   0  0  0  0  0  0  0  0  0  0  0  0
  -17.2891    2.9738   -1.6329 C   0  0  0  0  0  0  0  0  0  0  0  0
  -16.3019    2.8572   -0.6495 C   0  0  0  0  0  0  0  0  0  0  0  0
  -15.0993    2.2070   -0.8934 C   0  0  0  0  0  0  0  0  0  0  0  0
  -14.1832    2.1229    0.0875 N   0  0  0  0  0  0  0  0  0  0  0  0
  -13.0204    1.4930   -0.1516 C   0  0  0  0  0  0  0  0  0  0  0  0
  -12.0767    1.4076    0.8620 C   0  0  0  0  0  0  0  0  0  0  0  0
  -10.8394    0.7643    0.6844 C   0  0  0  0  0  0  0  0  0  0  0  0
   -9.8967    0.6887    1.7229 C   0  0  0  0  0  0  0  0  0  0  0  0
   -8.6614    0.0456    1.5429 C   0  0  0  0  0  0  0  0  0  0  0  0
   -7.7187   -0.0296    2.5779 C   0  0  0  0  0  0  0  0  0  0  0  0
   -6.4935   -0.6732    2.3825 C   0  0  0  0  0  0  0  0  0  0  0  0
   -6.1765   -1.2604    1.1504 C   0  0  0  0  0  0  0  0  0  0  0  0
   -4.8886   -1.9396    0.9449 C   0  0  0  0  0  0  0  0  0  0  0  0
   -4.8374   -3.2767    0.5294 C   0  0  0  0  0  0  0  0  0  0  0  0
   -3.6127   -3.9224    0.3359 C   0  0  0  0  0  0  0  0  0  0  0  0
   -2.4032   -3.2461    0.5512 C   0  0  0  0  0  0  0  0  0  0  0  0
   -1.1644   -3.8802    0.3607 C   0  0  0  0  0  0  0  0  0  0  0  0
    0.0469   -3.2009    0.5748 C   0  0  0  0  0  0  0  0  0  0  0  0
    1.2863   -3.8345    0.3834 C   0  0  0  0  0  0  0  0  0  0  0  0
    2.4969   -3.1545    0.5961 C   0  0  0  0  0  0  0  0  0  0  0  0
    3.7342   -3.7853    0.4034 C   0  0  0  0  0  0  0  0  0  0  0  0
    4.9302   -3.0943    0.6179 C   0  0  0  0  0  0  0  0  0  0  0  0
    4.9253   -1.7555    1.0318 C   0  0  0  0  0  0  0  0  0  0  0  0
    6.1846   -1.0290    1.2567 C   0  0  0  0  0  0  0  0  0  0  0  0
    7.1525   -0.9304    0.2426 C   0  0  0  0  0  0  0  0  0  0  0  0
    8.3639   -0.2434    0.4404 C   0  0  0  0  0  0  0  0  0  0  0  0
    9.3271   -0.1475   -0.5777 C   0  0  0  0  0  0  0  0  0  0  0  0
   10.5373    0.5373   -0.3773 C   0  0  0  0  0  0  0  0  0  0  0  0
   11.5034    0.6357   -1.3889 C   0  0  0  0  0  0  0  0  0  0  0  0
   12.7100    1.3243   -1.1706 C   0  0  0  0  0  0  0  0  0  0  0  0
   13.6876    1.4347   -2.1658 C   0  0  0  0  0  0  0  0  0  0  0  0
   14.8754    2.1281   -1.9105 C   0  0  0  0  0  0  0  0  0  0  0  0
   15.8819    2.2614   -2.8841 C   0  0  0  0  0  0  0  0  0  0  0  0
   17.0525    2.9591   -2.5947 C   0  0  0  0  0  0  0  0  0  0  0  0
   17.2205    3.5239   -1.3359 C   0  0  0  0  0  0  0  0  0  0  0  0
   16.2163    3.3879   -0.3724 C   0  0  0  0  0  0  0  0  0  0  0  0
   15.0401    2.6979   -0.6340 C   0  0  0  0  0  0  0  0  0  0  0  0
   14.1060    2.5965    0.3280 N   0  0  0  0  0  0  0  0  0  0  0  0
   12.9680    1.9281    0.0718 C   0  0  0  0  0  0  0  0  0  0  0  0
   12.0043    1.8243    1.0651 C   0  0  0  0  0  0  0  0  0  0  0  0
   10.7913    1.1407    0.8682 C   0  0  0  0  0  0  0  0  0  0  0  0
    9.8280    1.0469    1.8864 C   0  0  0  0  0  0  0  0  0  0  0  0
    8.6177    0.3626    1.6871 C   0  0  0  0  0  0  0  0  0  0  0  0
    7.6549    0.2682    2.7020 C   0  0  0  0  0  0  0  0  0  0  0  0
    6.4557   -0.4177    2.4880 C   0  0  0  0  0  0  0  0  0  0  0  0
    3.6827   -1.1282    1.2246 C   0  0  0  0  0  0  0  0  0  0  0  0
    2.4694   -1.8084    1.0117 C   0  0  0  0  0  0  0  0  0  0  0  0
    1.2296   -1.1756    1.2026 C   0  0  0  0  0  0  0  0  0  0  0  0
    0.0181   -1.8551    0.9894 C   0  0  0  0  0  0  0  0  0  0  0  0
   -1.2215   -1.2214    1.1805 C   0  0  0  0  0  0  0  0  0  0  0  0
   -2.4332   -1.9002    0.9676 C   0  0  0  0  0  0  0  0  0  0  0  0
   -3.6743   -1.2660    1.1593 C   0  0  0  0  0  0  0  0  0  0  0  0
   -7.1245   -1.1825    0.1165 C   0  0  0  0  0  0  0  0  0  0  0  0
   -8.3613   -0.5374    0.2953 C   0  0  0  0  0  0  0  0  0  0  0  0
   -9.3042   -0.4603   -0.7429 C   0  0  0  0  0  0  0  0  0  0  0  0
  -10.5394    0.1838   -0.5619 C   0  0  0  0  0  0  0  0  0  0  0  0
  -11.4853    0.2641   -1.5938 C   0  0  0  0  0  0  0  0  0  0  0  0
  -12.7171    0.9124   -1.3948 C   0  0  0  0  0  0  0  0  0  0  0  0
  -13.6760    1.0046   -2.4098 C   0  0  0  0  0  0  0  0  0  0  0  0
  -14.8899    1.6580   -2.1723 C   0  0  0  0  0  0  0  0  0  0  0  0
  -15.8791    1.7719   -3.1660 C   0  0  0  0  0  0  0  0  0  0  0  0
  -17.8401    2.5168   -3.6631 H   0  0  0  0  0  0  0  0  0  0  0  0
  -18.2189    3.4895   -1.4077 H   0  0  0  0  0  0  0  0  0  0  0  0
  -16.4748    3.2854    0.3351 H   0  0  0  0  0  0  0  0  0  0  0  0
  -12.3203    1.8602    1.8212 H   0  0  0  0  0  0  0  0  0  0  0  0
  -10.1286    1.1385    2.6871 H   0  0  0  0  0  0  0  0  0  0  0  0
   -7.9308    0.4109    3.5497 H   0  0  0  0  0  0  0  0  0  0  0  0
   -5.7885   -0.7237    3.2100 H   0  0  0  0  0  0  0  0  0  0  0  0
   -5.7580   -3.8333    0.3639 H   0  0  0  0  0  0  0  0  0  0  0  0
   -3.6134   -4.9624    0.0169 H   0  0  0  0  0  0  0  0  0  0  0  0
   -1.1427   -4.9201    0.0396 H   0  0  0  0  0  0  0  0  0  0  0  0
    1.3093   -4.8744    0.0625 H   0  0  0  0  0  0  0  0  0  0  0  0
    3.7797   -4.8247    0.0859 H   0  0  0  0  0  0  0  0  0  0  0  0
    5.8731   -3.6174    0.4698 H   0  0  0  0  0  0  0  0  0  0  0  0
    6.9523   -1.3900   -0.7244 H   0  0  0  0  0  0  0  0  0  0  0  0
    9.1308   -0.6141   -1.5415 H   0  0  0  0  0  0  0  0  0  0  0  0
   11.3180    0.1731   -2.3563 H   0  0  0  0  0  0  0  0  0  0  0  0
   13.5241    0.9807   -3.1401 H   0  0  0  0  0  0  0  0  0  0  0  0
   15.7574    1.8222   -3.8712 H   0  0  0  0  0  0  0  0  0  0  0  0
   17.8292    3.0613   -3.3482 H   0  0  0  0  0  0  0  0  0  0  0  0
   18.1288    4.0709   -1.0972 H   0  0  0  0  0  0  0  0  0  0  0  0
   16.3549    3.8326    0.6103 H   0  0  0  0  0  0  0  0  0  0  0  0
   12.2122    2.2948    2.0241 H   0  0  0  0  0  0  0  0  0  0  0  0
   10.0240    1.5143    2.8501 H   0  0  0  0  0  0  0  0  0  0  0  0
    7.8308    0.7259    3.6731 H   0  0  0  0  0  0  0  0  0  0  0  0
    5.7355   -0.4824    3.3013 H   0  0  0  0  0  0  0  0  0  0  0  0
    3.6600   -0.0847    1.5356 H   0  0  0  0  0  0  0  0  0  0  0  0
    1.2074   -0.1351    1.5221 H   0  0  0  0  0  0  0  0  0  0  0  0
   -1.2440   -0.1810    1.5004 H   0  0  0  0  0  0  0  0  0  0  0  0
   -3.6979   -0.2226    1.4709 H   0  0  0  0  0  0  0  0  0  0  0  0
   -6.8884   -1.6239   -0.8508 H   0  0  0  0  0  0  0  0  0  0  0  0
   -9.0721   -0.9090   -1.7072 H   0  0  0  0  0  0  0  0  0  0  0  0
  -11.2639   -0.1809   -2.5619 H   0  0  0  0  0  0  0  0  0  0  0  0
  -13.4779    0.5678   -3.3855 H   0  0  0  0  0  0  0  0  0  0  0  0
  -15.7198    1.3486   -4.1549 H   0  0  0  0  0  0  0  0  0  0  0  0
  1  2  4  0
  2  3  4  0
  3  4  4  0
  4  5  4  0
  5  6  4  0
  6  7  4  0
  7  8  4  0
  8  9  4  0
  9 10  4  0
 10 11  4  0
 11 12  4  0
 12 13  4  0
 13 14  1  0
 14 15  4  0
 15 16  4  0
 16 17  4  0
 17 18  4  0
 18 19  4  0
 19 20  4  0
 20 21  4  0
 21 22  4  0
 22 23  4  0
 23 24  4  0
 24 25  1  0
 25 26  4  0
 26 27  4  0
 27 28  4  0
 28 29  4  0
 29 30  4  0
 30 31  4  0
 31 32  4  0
 32 33  4  0
 33 34  4  0
 34 35  4  0
 35 36  4  0
 36 37  4  0
 37 38  4  0
 38 39  4  0
 39 40  4  0
 40 41  4  0
 41 42  4  0
 42 43  4  0
 43 44  4  0
 44 45  4  0
 45 46  4  0
 24 47  4  0
 47 48  4  0
 48 49  4  0
 49 50  4  0
 50 51  4  0
 51 52  4  0
 52 53  4  0
 13 54  4  0
 54 55  4  0
 55 56  4  0
 56 57  4  0
 57 58  4  0
 58 59  4  0
 59 60  4  0
 60 61  4  0
 61 62  4  0
 62  1  4  0
 61  4  4  0
 59  6  4  0
 57  8  4  0
 55 10  4  0
 53 14  4  0
 52 17  4  0
 50 19  4  0
 48 21  4  0
 46 25  4  0
 44 27  4  0
 42 29  4  0
 40 31  4  0
 38 33  4  0
  1 63  1  0
  2 64  1  0
  3 65  1  0
  7 66  1  0
  9 67  1  0
 11 68  1  0
 12 69  1  0
 15 70  1  0
 16 71  1  0
 18 72  1  0
 20 73  1  0
 22 74  1  0
 23 75  1  0
 26 76  1  0
 28 77  1  0
 30 78  1  0
 32 79  1  0
 34 80  1  0
 35 81  1  0
 36 82  1  0
 37 83  1  0
 41 84  1  0
 43 85  1  0
 45 86  1  0
 46 87  1  0
 47 88  1  0
 49 89  1  0
 51 90  1  0
 53 91  1  0
 54 92  1  0
 56 93  1  0
 58 94  1  0
 60 95  1  0
 62 96  1  0
M  END
