
     RDKit          3D

 96109  0  0  0  0  0  0  0  0999 V2000
    7.4250   -4.5088   -4.2337 C   0  0  0  0  0  0  0  0  0  0  0  0
    6.2279   -3.8697   -4.5348 C   0  0  0  0  0  0  0  0  0  0  0  0
    5.7728   -2.8277   -3.7214 C   0  0  0  0  0  0  0  0  0  0  0  0
    6.4866   -2.4059   -2.6078 C   0  0  0  0  0  0  0  0  0  0  0  0
    6.0069   -1.4018   -1.8569 N   0  0  0  0  0  0  0  0  0  0  0  0
    6.6798   -0.9734   -0.7634 C   0  0  0  0  0  0  0  0  0  0  0  0
    7.8972   -1.5717   -0.3949 C   0  0  0  0  0  0  0  0  0  0  0  0
    8.3968   -2.6174   -1.1817 C   0  0  0  0  0  0  0  0  0  0  0  0
    7.6938   -3.0544   -2.3074 C   0  0  0  0  0  0  0  0  0  0  0  0
    8.1598   -4.1032   -3.1216 C   0  0  0  0  0  0  0  0  0  0  0  0
    8.5968   -1.1326    0.7372 C   0  0  0  0  0  0  0  0  0  0  0  0
    8.1078   -0.0957    1.5373 C   0  0  0  0  0  0  0  0  0  0  0  0
    8.8280    0.3199    2.6715 C   0  0  0  0  0  0  0  0  0  0  0  0
    8.3640    1.3513    3.5007 C   0  0  0  0  0  0  0  0  0  0  0  0
    9.0827    1.7659    4.6348 C   0  0  0  0  0  0  0  0  0  0  0  0
    8.6015    2.7925    5.4487 C   0  0  0  0  0  0  0  0  0  0  0  0
    7.3971    3.4162    5.1388 C   0  0  0  0  0  0  0  0  0  0  0  0
    6.6740    3.0143    4.0149 C   0  0  0  0  0  0  0  0  0  0  0  0
    7.1467    1.9825    3.1867 C   0  0  0  0  0  0  0  0  0  0  0  0
    6.4320    1.5636    2.0508 C   0  0  0  0  0  0  0  0  0  0  0  0
    6.8882    0.5256    1.1994 C   0  0  0  0  0  0  0  0  0  0  0  0
    6.1814    0.0796    0.0351 C   0  0  0  0  0  0  0  0  0  0  0  0
    4.9044    0.7186   -0.3542 C   0  0  0  0  0  0  0  0  0  0  0  0
    4.8944    1.9052   -1.0988 C   0  0  0  0  0  0  0  0  0  0  0  0
    3.6875    2.5071   -1.4635 C   0  0  0  0  0  0  0  0  0  0  0  0
    2.4606    1.9334   -1.0971 C   0  0  0  0  0  0  0  0  0  0  0  0
    1.2382    2.5220   -1.4610 C   0  0  0  0  0  0  0  0  0  0  0  0
    0.0102    1.9418   -1.1010 C   0  0  0  0  0  0  0  0  0  0  0  0
   -1.2128    2.5288   -1.4658 C   0  0  0  0  0  0  0  0  0  0  0  0
   -2.4402    1.9477   -1.1063 C   0  0  0  0  0  0  0  0  0  0  0  0
   -3.6621    2.5361   -1.4660 C   0  0  0  0  0  0  0  0  0  0  0  0
   -4.8741    1.9459   -1.1000 C   0  0  0  0  0  0  0  0  0  0  0  0
   -4.8945    0.7506   -0.3698 C   0  0  0  0  0  0  0  0  0  0  0  0
   -6.1778    0.1135    0.0006 C   0  0  0  0  0  0  0  0  0  0  0  0
   -6.8348   -0.7689   -0.9181 C   0  0  0  0  0  0  0  0  0  0  0  0
   -6.3213   -1.1010   -2.1975 C   0  0  0  0  0  0  0  0  0  0  0  0
   -6.9878   -1.9679   -3.0808 C   0  0  0  0  0  0  0  0  0  0  0  0
   -6.4589   -2.2809   -4.3442 C   0  0  0  0  0  0  0  0  0  0  0  0
   -7.1359   -3.1429   -5.2080 C   0  0  0  0  0  0  0  0  0  0  0  0
   -8.3491   -3.7023   -4.8197 C   0  0  0  0  0  0  0  0  0  0  0  0
   -8.8855   -3.4006   -3.5671 C   0  0  0  0  0  0  0  0  0  0  0  0
   -8.2139   -2.5345   -2.6880 C   0  0  0  0  0  0  0  0  0  0  0  0
   -8.7345   -2.2195   -1.4246 C   0  0  0  0  0  0  0  0  0  0  0  0
   -8.0624   -1.3523   -0.5450 C   0  0  0  0  0  0  0  0  0  0  0  0
   -8.6086   -1.0633    0.7088 C   0  0  0  0  0  0  0  0  0  0  0  0
   -7.9592   -0.2052    1.6064 C   0  0  0  0  0  0  0  0  0  0  0  0
   -8.5193    0.0709    2.8601 C   0  0  0  0  0  0  0  0  0  0  0  0
   -7.8683    0.9259    3.7528 C   0  0  0  0  0  0  0  0  0  0  0  0
   -8.3980    1.2285    5.0208 C   0  0  0  0  0  0  0  0  0  0  0  0
   -7.7153    2.0859    5.8807 C   0  0  0  0  0  0  0  0  0  0  0  0
   -6.5062    2.6408    5.4779 C   0  0  0  0  0  0  0  0  0  0  0  0
   -5.9869    2.3350    4.2163 C   0  0  0  0  0  0  0  0  0  0  0  0
   -6.6486    1.4842    3.3410 C   0  0  0  0  0  0  0  0  0  0  0  0
   -6.1101    1.2225    2.1390 N   0  0  0  0  0  0  0  0  0  0  0  0
   -6.7341    0.3957    1.2677 C   0  0  0  0  0  0  0  0  0  0  0  0
   -3.6716    0.1643   -0.0060 C   0  0  0  0  0  0  0  0  0  0  0  0
   -2.4447    0.7480   -0.3653 C   0  0  0  0  0  0  0  0  0  0  0  0
   -1.2218    0.1616   -0.0012 C   0  0  0  0  0  0  0  0  0  0  0  0
    0.0050    0.7446   -0.3587 C   0  0  0  0  0  0  0  0  0  0  0  0
    1.2269    0.1576    0.0082 C   0  0  0  0  0  0  0  0  0  0  0  0
    2.4545    0.7365   -0.3518 C   0  0  0  0  0  0  0  0  0  0  0  0
    3.6761    0.1449    0.0117 C   0  0  0  0  0  0  0  0  0  0  0  0
    7.7853   -5.3195   -4.8616 H   0  0  0  0  0  0  0  0  0  0  0  0
    5.6439   -4.1757   -5.3987 H   0  0  0  0  0  0  0  0  0  0  0  0
    4.8355   -2.3297   -3.9601 H   0  0  0  0  0  0  0  0  0  0  0  0
    9.3369   -3.0958   -0.9166 H   0  0  0  0  0  0  0  0  0  0  0  0
    9.0955   -4.6072   -2.8914 H   0  0  0  0  0  0  0  0  0  0  0  0
    9.5385   -1.6123    1.0004 H   0  0  0  0  0  0  0  0  0  0  0  0
    9.7691   -0.1699    2.9171 H   0  0  0  0  0  0  0  0  0  0  0  0
   10.0256    1.2891    4.8930 H   0  0  0  0  0  0  0  0  0  0  0  0
    9.1666    3.1033    6.3235 H   0  0  0  0  0  0  0  0  0  0  0  0
    7.0180    4.2152    5.7702 H   0  0  0  0  0  0  0  0  0  0  0  0
    5.7340    3.5132    3.7883 H   0  0  0  0  0  0  0  0  0  0  0  0
    5.4892    2.0622    1.8284 H   0  0  0  0  0  0  0  0  0  0  0  0
    5.8323    2.3633   -1.4055 H   0  0  0  0  0  0  0  0  0  0  0  0
    3.7157    3.4259   -2.0446 H   0  0  0  0  0  0  0  0  0  0  0  0
    1.2436    3.4454   -2.0372 H   0  0  0  0  0  0  0  0  0  0  0  0
   -1.2103    3.4545   -2.0378 H   0  0  0  0  0  0  0  0  0  0  0  0
   -3.6828    3.4642   -2.0324 H   0  0  0  0  0  0  0  0  0  0  0  0
   -5.8080    2.4258   -1.3847 H   0  0  0  0  0  0  0  0  0  0  0  0
   -5.3718   -0.6753   -2.5200 H   0  0  0  0  0  0  0  0  0  0  0  0
   -5.5112   -1.8525   -4.6641 H   0  0  0  0  0  0  0  0  0  0  0  0
   -6.7149   -3.3759   -6.1825 H   0  0  0  0  0  0  0  0  0  0  0  0
   -8.8787   -4.3736   -5.4903 H   0  0  0  0  0  0  0  0  0  0  0  0
   -9.8347   -3.8475   -3.2805 H   0  0  0  0  0  0  0  0  0  0  0  0
   -9.6827   -2.6604   -1.1210 H   0  0  0  0  0  0  0  0  0  0  0  0
   -9.5572   -1.5152    0.9957 H   0  0  0  0  0  0  0  0  0  0  0  0
   -9.4667   -0.3816    3.1441 H   0  0  0  0  0  0  0  0  0  0  0  0
   -9.3431    0.7973    5.3422 H   0  0  0  0  0  0  0  0  0  0  0  0
   -8.1249    2.3190    6.8600 H   0  0  0  0  0  0  0  0  0  0  0  0
   -5.9625    3.3108    6.1386 H   0  0  0  0  0  0  0  0  0  0  0  0
   -5.0400    2.7708    3.9051 H   0  0  0  0  0  0  0  0  0  0  0  0
   -3.6832   -0.7586    0.5714 H   0  0  0  0  0  0  0  0  0  0  0  0
   -1.2256   -0.7642    0.5716 H   0  0  0  0  0  0  0  0  0  0  0  0
    1.2234   -0.7680    0.5812 H   0  0  0  0  0  0  0  0  0  0  0  0
    3.6789   -0.7847    0.5785 H   0  0  0  0  0  0  0  0  0  0  0  0
  1  2  4  0
  2  3  4  0
  3  4  4  0
  4  5  4  0
  5  6  4  0
  6  7  4  0
  7  8  4  0
  8  9  4  0
  9 10  4  0
  7 11  4  0
 11 12  4  0
 12 13  4  0
 13 14  4  0
 14 15  4  0
 15 16  4  0
 16 17  4  0
 17 18  4  0
 18 19  4  0
 19 20  4  0
 20 21  4  0
 21 22  4  0
 22 23  1  0
 23 24  4  0
 24 25  4  0
 25 26  4  0
 26 27  4  0
 27 28  4  0
 28 29  4  0
 29 30  4  0
 30 31  4  0
 31 32  4  0
 32 33  4  0
 33 34  1  0
 34 35  4  0
 35 36  4  0
 36 37  4  0
 37 38  4  0
 38 39  4  0
 39 40  4  0
 40 41  4  0
 41 42  4  0
 42 43  4  0
 43 44  4  0
 44 45  4  0
 45 46  4  0
 46 47  4  0
 47 48  4  0
 48 49  4  0
 49 50  4  0
 50 51  4  0
 51 52  4  0
 52 53  4  0
 53 54  4  0
 54 55  4  0
 33 56  4  0
 56 57  4  0
 57 58  4  0
 58 59  4  0
 59 60  4  0
 60 61  4  0
 61 62  4  0
 10  1  4  0
 21 12  4  0
 62 23  4  0
  9  4  4  0
 19 14  4  0
 61 26  4  0
 22  6  4  0
 59 28  4  0
 57 30  4  0
 55 34  4  0
 44 35  4  0
 55 46  4  0
 42 37  4  0
 53 48  4  0
  1 63  1  0
  2 64  1  0
  3 65  1  0
  8 66  1  0
 10 67  1  0
 11 68  1  0
 13 69  1  0
 15 70  1  0
 16 71  1  0
 17 72  1  0
 18 73  1  0
 20 74  1  0
 24 75  1  0
 25 76  1  0
 27 77  1  0
 29 78  1  0
 31 79  1  0
 32 80  1  0
 36 81  1  0
 38 82  1  0
 39 83  1  0
 40 84  1  0
 41 85  1  0
 43 86  1  0
 45 87  1  0
 47 88  1  0
 49 89  1  0
 50 90  1  0
 51 91  1  0
 52 92  1  0
 56 93  1  0
 58 94  1  0
 60 95  1  0
 62 96  1  0
M  END
