
     RDKit          3D

 96109  0  0  0  0  0  0  0  0999 V2000
  -14.1025   -0.9423    1.5870 C   0  0  0  0  0  0  0  0  0  0  0  0
  -13.4699    0.3017    1.5993 C   0  0  0  0  0  0  0  0  0  0  0  0
  -12.1256    0.4276    1.2128 C   0  0  0  0  0  0  0  0  0  0  0  0
  -11.4746    1.6721    1.2199 C   0  0  0  0  0  0  0  0  0  0  0  0
  -10.1298    1.7951    0.8323 C   0  0  0  0  0  0  0  0  0  0  0  0
   -9.4727    3.0338    0.8372 C   0  0  0  0  0  0  0  0  0  0  0  0
   -8.1259    3.1377    0.4450 C   0  0  0  0  0  0  0  0  0  0  0  0
   -7.4459    4.3587    0.4412 C   0  0  0  0  0  0  0  0  0  0  0  0
   -6.1053    4.4220    0.0440 C   0  0  0  0  0  0  0  0  0  0  0  0
   -5.4199    5.6474    0.0437 C   0  0  0  0  0  0  0  0  0  0  0  0
   -4.0902    5.7090   -0.3502 C   0  0  0  0  0  0  0  0  0  0  0  0
   -3.4418    4.5448   -0.7448 C   0  0  0  0  0  0  0  0  0  0  0  0
   -4.1108    3.3016   -0.7517 C   0  0  0  0  0  0  0  0  0  0  0  0
   -3.3636    2.1017   -1.1876 C   0  0  0  0  0  0  0  0  0  0  0  0
   -3.7846    1.3466   -2.2904 C   0  0  0  0  0  0  0  0  0  0  0  0
   -3.0653    0.2251   -2.7129 C   0  0  0  0  0  0  0  0  0  0  0  0
   -1.9003   -0.1736   -2.0423 C   0  0  0  0  0  0  0  0  0  0  0  0
   -1.1653   -1.2972   -2.4548 C   0  0  0  0  0  0  0  0  0  0  0  0
    0.0011   -1.6972   -1.7811 C   0  0  0  0  0  0  0  0  0  0  0  0
    0.7385   -2.8196   -2.1951 C   0  0  0  0  0  0  0  0  0  0  0  0
    1.9053   -3.2181   -1.5218 C   0  0  0  0  0  0  0  0  0  0  0  0
    2.6464   -4.3337   -1.9370 C   0  0  0  0  0  0  0  0  0  0  0  0
    3.8082   -4.7136   -1.2579 C   0  0  0  0  0  0  0  0  0  0  0  0
    4.2627   -3.9932   -0.1440 C   0  0  0  0  0  0  0  0  0  0  0  0
    5.4876   -4.4026    0.5795 C   0  0  0  0  0  0  0  0  0  0  0  0
    6.5787   -3.5222    0.7442 C   0  0  0  0  0  0  0  0  0  0  0  0
    6.5518   -2.2672    0.2391 N   0  0  0  0  0  0  0  0  0  0  0  0
    7.5969   -1.4405    0.4012 C   0  0  0  0  0  0  0  0  0  0  0  0
    7.5360   -0.1597   -0.1289 C   0  0  0  0  0  0  0  0  0  0  0  0
    8.5916    0.7588    0.0054 C   0  0  0  0  0  0  0  0  0  0  0  0
    8.5120    2.0517   -0.5381 C   0  0  0  0  0  0  0  0  0  0  0  0
    9.5677    2.9682   -0.4027 C   0  0  0  0  0  0  0  0  0  0  0  0
    9.4894    4.2611   -0.9458 C   0  0  0  0  0  0  0  0  0  0  0  0
   10.5468    5.1608   -0.8030 C   0  0  0  0  0  0  0  0  0  0  0  0
   11.6952    4.7797   -0.1159 C   0  0  0  0  0  0  0  0  0  0  0  0
   11.7881    3.4984    0.4295 C   0  0  0  0  0  0  0  0  0  0  0  0
   10.7326    2.5815    0.2942 C   0  0  0  0  0  0  0  0  0  0  0  0
   10.8107    1.2882    0.8369 C   0  0  0  0  0  0  0  0  0  0  0  0
    9.7533    0.3731    0.7000 C   0  0  0  0  0  0  0  0  0  0  0  0
    9.8238   -0.9201    1.2383 C   0  0  0  0  0  0  0  0  0  0  0  0
    8.7546   -1.8224    1.0913 C   0  0  0  0  0  0  0  0  0  0  0  0
    8.7963   -3.1173    1.6163 C   0  0  0  0  0  0  0  0  0  0  0  0
    7.7108   -3.9856    1.4495 C   0  0  0  0  0  0  0  0  0  0  0  0
    7.7525   -5.2872    1.9736 C   0  0  0  0  0  0  0  0  0  0  0  0
    6.6747   -6.1464    1.8078 C   0  0  0  0  0  0  0  0  0  0  0  0
    5.5517   -5.7066    1.1166 C   0  0  0  0  0  0  0  0  0  0  0  0
    3.5128   -2.8780    0.2681 C   0  0  0  0  0  0  0  0  0  0  0  0
    2.3446   -2.4788   -0.4060 C   0  0  0  0  0  0  0  0  0  0  0  0
    1.6076   -1.3564    0.0069 C   0  0  0  0  0  0  0  0  0  0  0  0
    0.4415   -0.9561   -0.6671 C   0  0  0  0  0  0  0  0  0  0  0  0
   -0.2944    0.1677   -0.2547 C   0  0  0  0  0  0  0  0  0  0  0  0
   -1.4598    0.5695   -0.9289 C   0  0  0  0  0  0  0  0  0  0  0  0
   -2.1962    1.6955   -0.5172 C   0  0  0  0  0  0  0  0  0  0  0  0
   -5.4627    3.2290   -0.3535 C   0  0  0  0  0  0  0  0  0  0  0  0
   -6.1315    2.0527   -0.3442 N   0  0  0  0  0  0  0  0  0  0  0  0
   -7.4165    1.9992    0.0408 C   0  0  0  0  0  0  0  0  0  0  0  0
   -8.0744    0.7775    0.0406 C   0  0  0  0  0  0  0  0  0  0  0  0
   -9.4195    0.6492    0.4284 C   0  0  0  0  0  0  0  0  0  0  0  0
  -10.0691   -0.5962    0.4215 C   0  0  0  0  0  0  0  0  0  0  0  0
  -11.4133   -0.7218    0.8084 C   0  0  0  0  0  0  0  0  0  0  0  0
  -12.0638   -1.9665    0.8017 C   0  0  0  0  0  0  0  0  0  0  0  0
  -13.4001   -2.0753    1.1887 C   0  0  0  0  0  0  0  0  0  0  0  0
  -15.1433   -1.0250    1.8887 H   0  0  0  0  0  0  0  0  0  0  0  0
  -14.0365    1.1752    1.9141 H   0  0  0  0  0  0  0  0  0  0  0  0
  -12.0243    2.5581    1.5323 H   0  0  0  0  0  0  0  0  0  0  0  0
  -10.0111    3.9268    1.1484 H   0  0  0  0  0  0  0  0  0  0  0  0
   -7.9631    5.2642    0.7505 H   0  0  0  0  0  0  0  0  0  0  0  0
   -5.9214    6.5628    0.3507 H   0  0  0  0  0  0  0  0  0  0  0  0
   -3.5611    6.6583   -0.3538 H   0  0  0  0  0  0  0  0  0  0  0  0
   -2.4023    4.6028   -1.0642 H   0  0  0  0  0  0  0  0  0  0  0  0
   -4.6891    1.6266   -2.8274 H   0  0  0  0  0  0  0  0  0  0  0  0
   -3.4288   -0.3355   -3.5710 H   0  0  0  0  0  0  0  0  0  0  0  0
   -1.5065   -1.8698   -3.3150 H   0  0  0  0  0  0  0  0  0  0  0  0
    0.4001   -3.3913   -3.0571 H   0  0  0  0  0  0  0  0  0  0  0  0
    2.3300   -4.9152   -2.7999 H   0  0  0  0  0  0  0  0  0  0  0  0
    4.3676   -5.5748   -1.6172 H   0  0  0  0  0  0  0  0  0  0  0  0
    6.6323    0.1245   -0.6649 H   0  0  0  0  0  0  0  0  0  0  0  0
    7.6133    2.3490   -1.0763 H   0  0  0  0  0  0  0  0  0  0  0  0
    8.6000    4.5776   -1.4864 H   0  0  0  0  0  0  0  0  0  0  0  0
   10.4721    6.1580   -1.2285 H   0  0  0  0  0  0  0  0  0  0  0  0
   12.5196    5.4789   -0.0036 H   0  0  0  0  0  0  0  0  0  0  0  0
   12.6941    3.2195    0.9629 H   0  0  0  0  0  0  0  0  0  0  0  0
   11.7094    0.9904    1.3740 H   0  0  0  0  0  0  0  0  0  0  0  0
   10.7171   -1.2301    1.7770 H   0  0  0  0  0  0  0  0  0  0  0  0
    9.6793   -3.4508    2.1569 H   0  0  0  0  0  0  0  0  0  0  0  0
    8.6276   -5.6382    2.5164 H   0  0  0  0  0  0  0  0  0  0  0  0
    6.7061   -7.1525    2.2174 H   0  0  0  0  0  0  0  0  0  0  0  0
    4.7059   -6.3828    1.0022 H   0  0  0  0  0  0  0  0  0  0  0  0
    3.8559   -2.3036    1.1278 H   0  0  0  0  0  0  0  0  0  0  0  0
    1.9506   -0.7839    0.8670 H   0  0  0  0  0  0  0  0  0  0  0  0
    0.0454    0.7395    0.6070 H   0  0  0  0  0  0  0  0  0  0  0  0
   -1.8620    2.2630    0.3500 H   0  0  0  0  0  0  0  0  0  0  0  0
   -7.5125   -0.1003   -0.2730 H   0  0  0  0  0  0  0  0  0  0  0  0
   -9.5190   -1.4827    0.1099 H   0  0  0  0  0  0  0  0  0  0  0  0
  -11.5316   -2.8639    0.4937 H   0  0  0  0  0  0  0  0  0  0  0  0
  -13.8906   -3.0450    1.1784 H   0  0  0  0  0  0  0  0  0  0  0  0
  1  2  4  0
  2  3  4  0
  3  4  4  0
  4  5  4  0
  5  6  4  0
  6  7  4  0
  7  8  4  0
  8  9  4  0
  9 10  4  0
 10 11  4  0
 11 12  4  0
 12 13  4  0
 13 14  1  0
 14 15  4  0
 15 16  4  0
 16 17  4  0
 17 18  4  0
 18 19  4  0
 19 20  4  0
 20 21  4  0
 21 22  4  0
 22 23  4  0
 23 24  4  0
 24 25  1  0
 25 26  4  0
 26 27  4  0
 27 28  4  0
 28 29  4  0
 29 30  4  0
 30 31  4  0
 31 32  4  0
 32 33  4  0
 33 34  4  0
 34 35  4  0
 35 36  4  0
 36 37  4  0
 37 38  4  0
 38 39  4  0
 39 40  4  0
 40 41  4  0
 41 42  4  0
 42 43  4  0
 43 44  4  0
 44 45  4  0
 45 46  4  0
 24 47  4  0
 47 48  4  0
 48 49  4  0
 49 50  4  0
 50 51  4  0
 51 52  4  0
 52 53  4  0
 13 54  4  0
 54 55  4  0
 55 56  4  0
 56 57  4  0
 57 58  4  0
 58 59  4  0
 59 60  4  0
 60 61  4  0
 61 62  4  0
 62  1  4  0
 60  3  4  0
 58  5  4  0
 56  7  4  0
 54  9  4  0
 53 14  4  0
 52 17  4  0
 50 19  4  0
 48 21  4  0
 46 25  4  0
 43 26  4  0
 41 28  4  0
 39 30  4  0
 37 32  4  0
  1 63  1  0
  2 64  1  0
  4 65  1  0
  6 66  1  0
  8 67  1  0
 10 68  1  0
 11 69  1  0
 12 70  1  0
 15 71  1  0
 16 72  1  0
 18 73  1  0
 20 74  1  0
 22 75  1  0
 23 76  1  0
 29 77  1  0
 31 78  1  0
 33 79  1  0
 34 80  1  0
 35 81  1  0
 36 82  1  0
 38 83  1  0
 40 84  1  0
 42 85  1  0
 44 86  1  0
 45 87  1  0
 46 88  1  0
 47 89  1  0
 49 90  1  0
 51 91  1  0
 53 92  1  0
 57 93  1  0
 59 94  1  0
 61 95  1  0
 62 96  1  0
M  END
