
     RDKit          3D

 86 99  0  0  0  0  0  0  0  0999 V2000
  -15.8979   -4.8938    1.5849 C   0  0  0  0  0  0  0  0  0  0  0  0
  -14.7087   -4.6910    2.2449 C   0  0  0  0  0  0  0  0  0  0  0  0
  -13.8263   -3.8019    1.5441 C   0  0  0  0  0  0  0  0  0  0  0  0
  -12.5298   -3.3403    1.8758 C   0  0  0  0  0  0  0  0  0  0  0  0
  -11.8331   -2.4573    1.0310 C   0  0  0  0  0  0  0  0  0  0  0  0
  -12.4307   -2.0234   -0.1639 C   0  0  0  0  0  0  0  0  0  0  0  0
  -11.7267   -1.1416   -1.0005 C   0  0  0  0  0  0  0  0  0  0  0  0
  -10.4403   -0.6832   -0.6723 C   0  0  0  0  0  0  0  0  0  0  0  0
   -9.7496    0.1986   -1.5199 C   0  0  0  0  0  0  0  0  0  0  0  0
   -8.4604    0.6402   -1.1636 C   0  0  0  0  0  0  0  0  0  0  0  0
   -7.4491    1.7114   -2.0522 S   0  0  0  0  0  0  0  0  0  0  0  0
   -6.1969    1.6386   -0.8896 C   0  0  0  0  0  0  0  0  0  0  0  0
   -4.9469    2.3811   -1.0907 C   0  0  0  0  0  0  0  0  0  0  0  0
   -4.9493    3.7354   -1.4431 C   0  0  0  0  0  0  0  0  0  0  0  0
   -3.7478    4.4287   -1.6161 C   0  0  0  0  0  0  0  0  0  0  0  0
   -2.5148    3.7841   -1.4383 C   0  0  0  0  0  0  0  0  0  0  0  0
   -1.2995    4.4672   -1.6091 C   0  0  0  0  0  0  0  0  0  0  0  0
   -0.0647    3.8209   -1.4313 C   0  0  0  0  0  0  0  0  0  0  0  0
    1.1510    4.5040   -1.6027 C   0  0  0  0  0  0  0  0  0  0  0  0
    2.3853    3.8576   -1.4256 C   0  0  0  0  0  0  0  0  0  0  0  0
    3.5992    4.5390   -1.5969 C   0  0  0  0  0  0  0  0  0  0  0  0
    4.8200    3.8821   -1.4178 C   0  0  0  0  0  0  0  0  0  0  0  0
    4.8564    2.5283   -1.0658 C   0  0  0  0  0  0  0  0  0  0  0  0
    6.1282    1.8263   -0.8579 C   0  0  0  0  0  0  0  0  0  0  0  0
    6.4994    1.0126    0.1936 C   0  0  0  0  0  0  0  0  0  0  0  0
    7.8250    0.4788    0.0631 C   0  0  0  0  0  0  0  0  0  0  0  0
    8.5643   -0.3723    0.9191 C   0  0  0  0  0  0  0  0  0  0  0  0
    9.8708   -0.7776    0.5907 C   0  0  0  0  0  0  0  0  0  0  0  0
   10.6065   -1.6203    1.4404 C   0  0  0  0  0  0  0  0  0  0  0  0
   11.9119   -2.0296    1.1208 C   0  0  0  0  0  0  0  0  0  0  0  0
   12.4954   -1.5860   -0.0775 C   0  0  0  0  0  0  0  0  0  0  0  0
   11.7590   -0.7436   -0.9267 C   0  0  0  0  0  0  0  0  0  0  0  0
   10.4541   -0.3334   -0.6074 C   0  0  0  0  0  0  0  0  0  0  0  0
    9.7319    0.5106   -1.4671 C   0  0  0  0  0  0  0  0  0  0  0  0
    8.4259    0.9065   -1.1185 C   0  0  0  0  0  0  0  0  0  0  0  0
    7.3777    1.9295   -2.0209 S   0  0  0  0  0  0  0  0  0  0  0  0
   13.7997   -1.9861   -0.4118 C   0  0  0  0  0  0  0  0  0  0  0  0
   14.5138   -2.8312    0.4599 C   0  0  0  0  0  0  0  0  0  0  0  0
   16.1134   -3.4353    0.2411 S   0  0  0  0  0  0  0  0  0  0  0  0
   16.0716   -4.2909    1.7151 C   0  0  0  0  0  0  0  0  0  0  0  0
   14.8730   -4.1292    2.3695 C   0  0  0  0  0  0  0  0  0  0  0  0
   13.9571   -3.2853    1.6555 C   0  0  0  0  0  0  0  0  0  0  0  0
   12.6417   -2.8731    1.9781 C   0  0  0  0  0  0  0  0  0  0  0  0
    3.6423    1.8473   -0.8895 C   0  0  0  0  0  0  0  0  0  0  0  0
    2.4061    2.4944   -1.0674 C   0  0  0  0  0  0  0  0  0  0  0  0
    1.1898    1.8120   -0.8970 C   0  0  0  0  0  0  0  0  0  0  0  0
   -0.0452    2.4585   -1.0742 C   0  0  0  0  0  0  0  0  0  0  0  0
   -1.2611    1.7753   -0.9032 C   0  0  0  0  0  0  0  0  0  0  0  0
   -2.4963    2.4210   -1.0799 C   0  0  0  0  0  0  0  0  0  0  0  0
   -3.7135    1.7372   -0.9083 C   0  0  0  0  0  0  0  0  0  0  0  0
   -6.5421    0.8037    0.1543 C   0  0  0  0  0  0  0  0  0  0  0  0
   -7.8466    0.2228    0.0150 C   0  0  0  0  0  0  0  0  0  0  0  0
   -8.5547   -0.6652    0.8598 C   0  0  0  0  0  0  0  0  0  0  0  0
   -9.8431   -1.1178    0.5225 C   0  0  0  0  0  0  0  0  0  0  0  0
  -10.5465   -1.9994    1.3599 C   0  0  0  0  0  0  0  0  0  0  0  0
  -13.7166   -2.4725   -0.5072 C   0  0  0  0  0  0  0  0  0  0  0  0
  -14.3979   -3.3566    0.3522 C   0  0  0  0  0  0  0  0  0  0  0  0
  -15.9708   -4.0230    0.1211 S   0  0  0  0  0  0  0  0  0  0  0  0
  -16.7291   -5.5129    1.8931 H   0  0  0  0  0  0  0  0  0  0  0  0
  -14.4730   -5.1581    3.1932 H   0  0  0  0  0  0  0  0  0  0  0  0
  -12.0748   -3.6812    2.8029 H   0  0  0  0  0  0  0  0  0  0  0  0
  -12.1898   -0.8048   -1.9270 H   0  0  0  0  0  0  0  0  0  0  0  0
  -10.1985    0.5436   -2.4479 H   0  0  0  0  0  0  0  0  0  0  0  0
   -5.8865    4.2711   -1.5776 H   0  0  0  0  0  0  0  0  0  0  0  0
   -3.7854    5.4809   -1.8899 H   0  0  0  0  0  0  0  0  0  0  0  0
   -1.3150    5.5199   -1.8861 H   0  0  0  0  0  0  0  0  0  0  0  0
    1.1364    5.5567   -1.8797 H   0  0  0  0  0  0  0  0  0  0  0  0
    3.6068    5.5920   -1.8701 H   0  0  0  0  0  0  0  0  0  0  0  0
    5.7417    4.4453   -1.5470 H   0  0  0  0  0  0  0  0  0  0  0  0
    5.8531    0.8112    1.0395 H   0  0  0  0  0  0  0  0  0  0  0  0
    8.1048   -0.7112    1.8448 H   0  0  0  0  0  0  0  0  0  0  0  0
   10.1542   -1.9641    2.3692 H   0  0  0  0  0  0  0  0  0  0  0  0
   12.2114   -0.3995   -1.8557 H   0  0  0  0  0  0  0  0  0  0  0  0
   10.1699    0.8626   -2.3976 H   0  0  0  0  0  0  0  0  0  0  0  0
   14.2644   -1.6510   -1.3355 H   0  0  0  0  0  0  0  0  0  0  0  0
   16.9265   -4.8717    2.0329 H   0  0  0  0  0  0  0  0  0  0  0  0
   14.6536   -4.5942    3.3227 H   0  0  0  0  0  0  0  0  0  0  0  0
   12.1984   -3.2214    2.9082 H   0  0  0  0  0  0  0  0  0  0  0  0
    3.6576    0.7923   -0.6214 H   0  0  0  0  0  0  0  0  0  0  0  0
    1.2045    0.7586   -0.6224 H   0  0  0  0  0  0  0  0  0  0  0  0
   -1.2459    0.7220   -0.6287 H   0  0  0  0  0  0  0  0  0  0  0  0
   -3.6987    0.6821   -0.6405 H   0  0  0  0  0  0  0  0  0  0  0  0
   -5.8906    0.6162    0.9994 H   0  0  0  0  0  0  0  0  0  0  0  0
   -8.0846   -0.9965    1.7828 H   0  0  0  0  0  0  0  0  0  0  0  0
  -10.0833   -2.3356    2.2862 H   0  0  0  0  0  0  0  0  0  0  0  0
  -14.1921   -2.1456   -1.4284 H   0  0  0  0  0  0  0  0  0  0  0  0
  1  2  4  0
  2  3  4  0
  3  4  4  0
  4  5  4  0
  5  6  4  0
  6  7  4  0
  7  8  4  0
  8  9  4  0
  9 10  4  0
 10 11  4  0
 11 12  4  0
 12 13  1  0
 13 14  4  0
 14 15  4  0
 15 16  4  0
 16 17  4  0
 17 18  4  0
 18 19  4  0
 19 20  4  0
 20 21  4  0
 21 22  4  0
 22 23  4  0
 23 24  1  0
 24 25  4  0
 25 26  4  0
 26 27  4  0
 27 28  4  0
 28 29  4  0
 29 30  4  0
 30 31  4  0
 31 32  4  0
 32 33  4  0
 33 34  4  0
 34 35  4  0
 35 36  4  0
 31 37  4  0
 37 38  4  0
 38 39  4  0
 39 40  4  0
 40 41  4  0
 41 42  4  0
 42 43  4  0
 23 44  4  0
 44 45  4  0
 45 46  4  0
 46 47  4  0
 47 48  4  0
 48 49  4  0
 49 50  4  0
 12 51  4  0
 51 52  4  0
 52 53  4  0
 53 54  4  0
 54 55  4  0
  6 56  4  0
 56 57  4  0
 57 58  4  0
 58  1  4  0
 57  3  4  0
 55  5  4  0
 54  8  4  0
 52 10  4  0
 50 13  4  0
 49 16  4  0
 47 18  4  0
 45 20  4  0
 36 24  4  0
 42 38  4  0
 35 26  4  0
 33 28  4  0
 43 30  4  0
  1 59  1  0
  2 60  1  0
  4 61  1  0
  7 62  1  0
  9 63  1  0
 14 64  1  0
 15 65  1  0
 17 66  1  0
 19 67  1  0
 21 68  1  0
 22 69  1  0
 25 70  1  0
 27 71  1  0
 29 72  1  0
 32 73  1  0
 34 74  1  0
 37 75  1  0
 40 76  1  0
 41 77  1  0
 43 78  1  0
 44 79  1  0
 46 80  1  0
 48 81  1  0
 50 82  1  0
 51 83  1  0
 53 84  1  0
 55 85  1  0
 56 86  1  0
M  END
