
     RDKit          3D

 86 99  0  0  0  0  0  0  0  0999 V2000
    7.4679   -5.7746   -1.4869 C   0  0  0  0  0  0  0  0  0  0  0  0
    6.5188   -5.0087   -0.8514 C   0  0  0  0  0  0  0  0  0  0  0  0
    6.9184   -3.6386   -0.7016 C   0  0  0  0  0  0  0  0  0  0  0  0
    6.2471   -2.5386   -0.1140 C   0  0  0  0  0  0  0  0  0  0  0  0
    6.8137   -1.2380   -0.0596 C   0  0  0  0  0  0  0  0  0  0  0  0
    8.0923   -1.0649   -0.6203 C   0  0  0  0  0  0  0  0  0  0  0  0
    8.6951    0.1985   -0.5934 C   0  0  0  0  0  0  0  0  0  0  0  0
    8.0677    1.3126   -0.0232 C   0  0  0  0  0  0  0  0  0  0  0  0
    8.7274    2.5546   -0.0289 C   0  0  0  0  0  0  0  0  0  0  0  0
    8.1076    3.6808    0.5404 C   0  0  0  0  0  0  0  0  0  0  0  0
    8.7376    5.2816    0.6366 S   0  0  0  0  0  0  0  0  0  0  0  0
    7.3464    5.8595    1.4355 C   0  0  0  0  0  0  0  0  0  0  0  0
    6.4159    4.8656    1.6295 C   0  0  0  0  0  0  0  0  0  0  0  0
    6.8433    3.5956    1.1159 C   0  0  0  0  0  0  0  0  0  0  0  0
    6.1971    2.3355    1.1114 C   0  0  0  0  0  0  0  0  0  0  0  0
    6.7890    1.1752    0.5468 C   0  0  0  0  0  0  0  0  0  0  0  0
    6.1564   -0.1099    0.5297 C   0  0  0  0  0  0  0  0  0  0  0  0
    4.8125   -0.2733    1.1272 C   0  0  0  0  0  0  0  0  0  0  0  0
    4.6682   -0.6217    2.4760 C   0  0  0  0  0  0  0  0  0  0  0  0
    3.3991   -0.7741    3.0388 C   0  0  0  0  0  0  0  0  0  0  0  0
    2.2436   -0.5814    2.2662 C   0  0  0  0  0  0  0  0  0  0  0  0
    0.9608   -0.7320    2.8181 C   0  0  0  0  0  0  0  0  0  0  0  0
   -0.1969   -0.5375    2.0458 C   0  0  0  0  0  0  0  0  0  0  0  0
   -1.4806   -0.6887    2.5975 C   0  0  0  0  0  0  0  0  0  0  0  0
   -2.6374   -0.4929    1.8254 C   0  0  0  0  0  0  0  0  0  0  0  0
   -3.9190   -0.6442    2.3764 C   0  0  0  0  0  0  0  0  0  0  0  0
   -5.0599   -0.4453    1.5956 C   0  0  0  0  0  0  0  0  0  0  0  0
   -4.9464   -0.0901    0.2457 C   0  0  0  0  0  0  0  0  0  0  0  0
   -6.1530    0.1225   -0.5837 C   0  0  0  0  0  0  0  0  0  0  0  0
   -6.7235   -0.9775   -1.3021 C   0  0  0  0  0  0  0  0  0  0  0  0
   -6.1970   -2.2955   -1.2703 C   0  0  0  0  0  0  0  0  0  0  0  0
   -6.7801   -3.3667   -1.9901 C   0  0  0  0  0  0  0  0  0  0  0  0
   -6.4016   -4.7476   -2.0843 C   0  0  0  0  0  0  0  0  0  0  0  0
   -7.2381   -5.4754   -2.8978 C   0  0  0  0  0  0  0  0  0  0  0  0
   -8.4823   -4.5125   -3.5556 S   0  0  0  0  0  0  0  0  0  0  0  0
   -7.9126   -3.0982   -2.7532 C   0  0  0  0  0  0  0  0  0  0  0  0
   -8.4637   -1.8062   -2.8110 C   0  0  0  0  0  0  0  0  0  0  0  0
   -7.8691   -0.7567   -2.0881 C   0  0  0  0  0  0  0  0  0  0  0  0
   -8.4273    0.5255   -2.1537 C   0  0  0  0  0  0  0  0  0  0  0  0
   -7.8838    1.6124   -1.4586 C   0  0  0  0  0  0  0  0  0  0  0  0
   -6.7386    1.4273   -0.6631 C   0  0  0  0  0  0  0  0  0  0  0  0
   -6.2273    2.5617    0.0203 C   0  0  0  0  0  0  0  0  0  0  0  0
   -6.8245    3.8422   -0.0752 C   0  0  0  0  0  0  0  0  0  0  0  0
   -6.4619    5.0922    0.5292 C   0  0  0  0  0  0  0  0  0  0  0  0
   -7.3088    6.1182    0.1809 C   0  0  0  0  0  0  0  0  0  0  0  0
   -8.5440    5.5943   -0.8716 S   0  0  0  0  0  0  0  0  0  0  0  0
   -7.9561    3.9748   -0.8745 C   0  0  0  0  0  0  0  0  0  0  0  0
   -8.4928    2.8753   -1.5671 C   0  0  0  0  0  0  0  0  0  0  0  0
   -3.6639    0.0610   -0.3063 C   0  0  0  0  0  0  0  0  0  0  0  0
   -2.5076   -0.1364    0.4672 C   0  0  0  0  0  0  0  0  0  0  0  0
   -1.2246    0.0136   -0.0839 C   0  0  0  0  0  0  0  0  0  0  0  0
   -0.0676   -0.1829    0.6886 C   0  0  0  0  0  0  0  0  0  0  0  0
    1.2155   -0.0331    0.1358 C   0  0  0  0  0  0  0  0  0  0  0  0
    2.3730   -0.2287    0.9069 C   0  0  0  0  0  0  0  0  0  0  0  0
    3.6565   -0.0797    0.3535 C   0  0  0  0  0  0  0  0  0  0  0  0
    8.7764   -2.1436   -1.2087 C   0  0  0  0  0  0  0  0  0  0  0  0
    8.1817   -3.4171   -1.2421 C   0  0  0  0  0  0  0  0  0  0  0  0
    8.8442   -4.8609   -1.9097 S   0  0  0  0  0  0  0  0  0  0  0  0
    7.4187   -6.8286   -1.7237 H   0  0  0  0  0  0  0  0  0  0  0  0
    5.5731   -5.4068   -0.5046 H   0  0  0  0  0  0  0  0  0  0  0  0
    5.2601   -2.7235    0.3047 H   0  0  0  0  0  0  0  0  0  0  0  0
    9.6862    0.3188   -1.0315 H   0  0  0  0  0  0  0  0  0  0  0  0
    9.7162    2.6566   -0.4698 H   0  0  0  0  0  0  0  0  0  0  0  0
    7.2751    6.8987    1.7254 H   0  0  0  0  0  0  0  0  0  0  0  0
    5.4647    5.0339    2.1196 H   0  0  0  0  0  0  0  0  0  0  0  0
    5.2094    2.2809    1.5643 H   0  0  0  0  0  0  0  0  0  0  0  0
    5.5492   -0.7756    3.0964 H   0  0  0  0  0  0  0  0  0  0  0  0
    3.3214   -1.0443    4.0897 H   0  0  0  0  0  0  0  0  0  0  0  0
    0.8614   -1.0047    3.8673 H   0  0  0  0  0  0  0  0  0  0  0  0
   -1.5814   -0.9639    3.6459 H   0  0  0  0  0  0  0  0  0  0  0  0
   -4.0413   -0.9193    3.4218 H   0  0  0  0  0  0  0  0  0  0  0  0
   -6.0429   -0.5685    2.0461 H   0  0  0  0  0  0  0  0  0  0  0  0
   -5.3121   -2.5171   -0.6776 H   0  0  0  0  0  0  0  0  0  0  0  0
   -5.5500   -5.1801   -1.5733 H   0  0  0  0  0  0  0  0  0  0  0  0
   -7.1780   -6.5280   -3.1380 H   0  0  0  0  0  0  0  0  0  0  0  0
   -9.3490   -1.6312   -3.4176 H   0  0  0  0  0  0  0  0  0  0  0  0
   -9.3148    0.6829   -2.7668 H   0  0  0  0  0  0  0  0  0  0  0  0
   -5.3437    2.4702    0.6482 H   0  0  0  0  0  0  0  0  0  0  0  0
   -5.6140    5.2239    1.1901 H   0  0  0  0  0  0  0  0  0  0  0  0
   -7.2611    7.1519    0.4947 H   0  0  0  0  0  0  0  0  0  0  0  0
   -9.3780    3.0142   -2.1830 H   0  0  0  0  0  0  0  0  0  0  0  0
   -3.5721    0.3368   -1.3561 H   0  0  0  0  0  0  0  0  0  0  0  0
   -1.1246    0.2881   -1.1328 H   0  0  0  0  0  0  0  0  0  0  0  0
    1.3141    0.2408   -0.9134 H   0  0  0  0  0  0  0  0  0  0  0  0
    3.7657    0.1924   -0.6956 H   0  0  0  0  0  0  0  0  0  0  0  0
    9.7647   -2.0056   -1.6407 H   0  0  0  0  0  0  0  0  0  0  0  0
  1  2  4  0
  2  3  4  0
  3  4  4  0
  4  5  4  0
  5  6  4  0
  6  7  4  0
  7  8  4  0
  8  9  4  0
  9 10  4  0
 10 11  4  0
 11 12  4  0
 12 13  4  0
 13 14  4  0
 14 15  4  0
 15 16  4  0
 16 17  4  0
 17 18  1  0
 18 19  4  0
 19 20  4  0
 20 21  4  0
 21 22  4  0
 22 23  4  0
 23 24  4  0
 24 25  4  0
 25 26  4  0
 26 27  4  0
 27 28  4  0
 28 29  1  0
 29 30  4  0
 30 31  4  0
 31 32  4  0
 32 33  4  0
 33 34  4  0
 34 35  4  0
 35 36  4  0
 36 37  4  0
 37 38  4  0
 38 39  4  0
 39 40  4  0
 40 41  4  0
 41 42  4  0
 42 43  4  0
 43 44  4  0
 44 45  4  0
 45 46  4  0
 46 47  4  0
 47 48  4  0
 28 49  4  0
 49 50  4  0
 50 51  4  0
 51 52  4  0
 52 53  4  0
 53 54  4  0
 54 55  4  0
  6 56  4  0
 56 57  4  0
 57 58  4  0
 58  1  4  0
 57  3  4  0
 17  5  4  0
 55 18  4  0
 16  8  4  0
 54 21  4  0
 14 10  4  0
 52 23  4  0
 50 25  4  0
 41 29  4  0
 47 43  4  0
 38 30  4  0
 48 40  4  0
 36 32  4  0
  1 59  1  0
  2 60  1  0
  4 61  1  0
  7 62  1  0
  9 63  1  0
 12 64  1  0
 13 65  1  0
 15 66  1  0
 19 67  1  0
 20 68  1  0
 22 69  1  0
 24 70  1  0
 26 71  1  0
 27 72  1  0
 31 73  1  0
 33 74  1  0
 34 75  1  0
 37 76  1  0
 39 77  1  0
 42 78  1  0
 44 79  1  0
 45 80  1  0
 48 81  1  0
 49 82  1  0
 51 83  1  0
 53 84  1  0
 55 85  1  0
 56 86  1  0
M  END
