
     RDKit          3D

 80 91  0  0  0  0  0  0  0  0999 V2000
  -13.1292    1.8149   -1.9145 C   0  0  0  0  0  0  0  0  0  0  0  0
  -12.7478    1.0323   -0.8236 C   0  0  0  0  0  0  0  0  0  0  0  0
  -11.4195    0.5982   -0.6778 C   0  0  0  0  0  0  0  0  0  0  0  0
  -11.0246   -0.1899    0.4164 C   0  0  0  0  0  0  0  0  0  0  0  0
   -9.7039   -0.6304    0.5740 C   0  0  0  0  0  0  0  0  0  0  0  0
   -9.3856   -1.4211    1.7067 C   0  0  0  0  0  0  0  0  0  0  0  0
   -8.0437   -1.7976    1.7476 C   0  0  0  0  0  0  0  0  0  0  0  0
   -7.5178   -2.5606    2.7586 C   0  0  0  0  0  0  0  0  0  0  0  0
   -5.8422   -2.8447    2.5119 S   0  0  0  0  0  0  0  0  0  0  0  0
   -5.8166   -1.9437    1.0388 C   0  0  0  0  0  0  0  0  0  0  0  0
   -4.5581   -1.8483    0.2966 C   0  0  0  0  0  0  0  0  0  0  0  0
   -4.4215   -2.4905   -0.9377 C   0  0  0  0  0  0  0  0  0  0  0  0
   -3.2296   -2.3893   -1.6587 C   0  0  0  0  0  0  0  0  0  0  0  0
   -2.1506   -1.6438   -1.1592 C   0  0  0  0  0  0  0  0  0  0  0  0
   -0.9462   -1.5319   -1.8729 C   0  0  0  0  0  0  0  0  0  0  0  0
    0.1346   -0.7854   -1.3740 C   0  0  0  0  0  0  0  0  0  0  0  0
    1.3390   -0.6730   -2.0890 C   0  0  0  0  0  0  0  0  0  0  0  0
    2.4202    0.0723   -1.5907 C   0  0  0  0  0  0  0  0  0  0  0  0
    3.6227    0.1843   -2.3059 C   0  0  0  0  0  0  0  0  0  0  0  0
    4.6889    0.9302   -1.7978 C   0  0  0  0  0  0  0  0  0  0  0  0
    4.5740    1.5789   -0.5647 C   0  0  0  0  0  0  0  0  0  0  0  0
    5.6977    2.3542   -0.0344 C   0  0  0  0  0  0  0  0  0  0  0  0
    6.9440    1.9562    0.4064 C   0  0  0  0  0  0  0  0  0  0  0  0
    7.3696    0.6240    0.4578 C   0  0  0  0  0  0  0  0  0  0  0  0
    8.6936    0.4758    0.9445 C   0  0  0  0  0  0  0  0  0  0  0  0
    9.2302   -0.8152    1.0371 C   0  0  0  0  0  0  0  0  0  0  0  0
   10.5341   -1.0463    1.5067 C   0  0  0  0  0  0  0  0  0  0  0  0
   11.0587   -2.3468    1.5932 C   0  0  0  0  0  0  0  0  0  0  0  0
   12.3556   -2.5656    2.0603 C   0  0  0  0  0  0  0  0  0  0  0  0
   13.1450   -1.4877    2.4470 C   0  0  0  0  0  0  0  0  0  0  0  0
   12.6377   -0.1899    2.3674 C   0  0  0  0  0  0  0  0  0  0  0  0
   11.3341    0.0467    1.8994 C   0  0  0  0  0  0  0  0  0  0  0  0
   10.8133    1.3489    1.8157 C   0  0  0  0  0  0  0  0  0  0  0  0
    9.5156    1.5997    1.3500 C   0  0  0  0  0  0  0  0  0  0  0  0
    9.0649    2.9423    1.2977 C   0  0  0  0  0  0  0  0  0  0  0  0
    7.7623    3.0611    0.8150 C   0  0  0  0  0  0  0  0  0  0  0  0
    7.1283    4.2702    0.6856 C   0  0  0  0  0  0  0  0  0  0  0  0
    5.5392    4.0718    0.0666 S   0  0  0  0  0  0  0  0  0  0  0  0
    3.3762    1.4683    0.1550 C   0  0  0  0  0  0  0  0  0  0  0  0
    2.2945    0.7223   -0.3451 C   0  0  0  0  0  0  0  0  0  0  0  0
    1.0897    0.6096    0.3687 C   0  0  0  0  0  0  0  0  0  0  0  0
    0.0081   -0.1357   -0.1306 C   0  0  0  0  0  0  0  0  0  0  0  0
   -1.1971   -0.2468    0.5836 C   0  0  0  0  0  0  0  0  0  0  0  0
   -2.2784   -0.9925    0.0857 C   0  0  0  0  0  0  0  0  0  0  0  0
   -3.4840   -1.1019    0.8002 C   0  0  0  0  0  0  0  0  0  0  0  0
   -7.0696   -1.4370    0.7587 C   0  0  0  0  0  0  0  0  0  0  0  0
   -7.3641   -0.6522   -0.3616 C   0  0  0  0  0  0  0  0  0  0  0  0
   -8.7237   -0.2566   -0.4275 C   0  0  0  0  0  0  0  0  0  0  0  0
   -9.1361    0.5308   -1.5101 C   0  0  0  0  0  0  0  0  0  0  0  0
  -10.4654    0.9623   -1.6506 C   0  0  0  0  0  0  0  0  0  0  0  0
  -10.8646    1.7505   -2.7428 C   0  0  0  0  0  0  0  0  0  0  0  0
  -12.1880    2.1738   -2.8737 C   0  0  0  0  0  0  0  0  0  0  0  0
  -14.1607    2.1428   -2.0138 H   0  0  0  0  0  0  0  0  0  0  0  0
  -13.4988    0.7622   -0.0846 H   0  0  0  0  0  0  0  0  0  0  0  0
  -11.7712   -0.4639    1.1606 H   0  0  0  0  0  0  0  0  0  0  0  0
  -10.1137   -1.6996    2.4579 H   0  0  0  0  0  0  0  0  0  0  0  0
   -8.0114   -2.9702    3.6290 H   0  0  0  0  0  0  0  0  0  0  0  0
   -5.2423   -3.0775   -1.3447 H   0  0  0  0  0  0  0  0  0  0  0  0
   -3.1508   -2.9008   -2.6155 H   0  0  0  0  0  0  0  0  0  0  0  0
   -0.8471   -2.0346   -2.8333 H   0  0  0  0  0  0  0  0  0  0  0  0
    1.4365   -1.1743   -3.0504 H   0  0  0  0  0  0  0  0  0  0  0  0
    3.7394   -0.3078   -3.2691 H   0  0  0  0  0  0  0  0  0  0  0  0
    5.6085    1.0065   -2.3744 H   0  0  0  0  0  0  0  0  0  0  0  0
    6.7557   -0.2179    0.1621 H   0  0  0  0  0  0  0  0  0  0  0  0
    8.6226   -1.6681    0.7373 H   0  0  0  0  0  0  0  0  0  0  0  0
   10.4570   -3.2029    1.2960 H   0  0  0  0  0  0  0  0  0  0  0  0
   12.7472   -3.5775    2.1217 H   0  0  0  0  0  0  0  0  0  0  0  0
   14.1553   -1.6549    2.8113 H   0  0  0  0  0  0  0  0  0  0  0  0
   13.2705    0.6397    2.6751 H   0  0  0  0  0  0  0  0  0  0  0  0
   11.4411    2.1843    2.1231 H   0  0  0  0  0  0  0  0  0  0  0  0
    9.6743    3.7837    1.6023 H   0  0  0  0  0  0  0  0  0  0  0  0
    7.4981    5.2597    0.9160 H   0  0  0  0  0  0  0  0  0  0  0  0
    3.2874    1.9672    1.1185 H   0  0  0  0  0  0  0  0  0  0  0  0
    0.9920    1.1114    1.3301 H   0  0  0  0  0  0  0  0  0  0  0  0
   -1.2947    0.2562    1.5443 H   0  0  0  0  0  0  0  0  0  0  0  0
   -3.5919   -0.5957    1.7580 H   0  0  0  0  0  0  0  0  0  0  0  0
   -6.6331   -0.3660   -1.1077 H   0  0  0  0  0  0  0  0  0  0  0  0
   -8.4085    0.8190   -2.2679 H   0  0  0  0  0  0  0  0  0  0  0  0
  -10.1433    2.0412   -3.5035 H   0  0  0  0  0  0  0  0  0  0  0  0
  -12.4822    2.7829   -3.7244 H   0  0  0  0  0  0  0  0  0  0  0  0
  1  2  4  0
  2  3  4  0
  3  4  4  0
  4  5  4  0
  5  6  4  0
  6  7  4  0
  7  8  4  0
  8  9  4  0
  9 10  4  0
 10 11  1  0
 11 12  4  0
 12 13  4  0
 13 14  4  0
 14 15  4  0
 15 16  4  0
 16 17  4  0
 17 18  4  0
 18 19  4  0
 19 20  4  0
 20 21  4  0
 21 22  1  0
 22 23  4  0
 23 24  4  0
 24 25  4  0
 25 26  4  0
 26 27  4  0
 27 28  4  0
 28 29  4  0
 29 30  4  0
 30 31  4  0
 31 32  4  0
 32 33  4  0
 33 34  4  0
 34 35  4  0
 35 36  4  0
 36 37  4  0
 37 38  4  0
 21 39  4  0
 39 40  4  0
 40 41  4  0
 41 42  4  0
 42 43  4  0
 43 44  4  0
 44 45  4  0
 10 46  4  0
 46 47  4  0
 47 48  4  0
 48 49  4  0
 49 50  4  0
 50 51  4  0
 51 52  4  0
 52  1  4  0
 50  3  4  0
 48  5  4  0
 46  7  4  0
 45 11  4  0
 44 14  4  0
 42 16  4  0
 40 18  4  0
 38 22  4  0
 36 23  4  0
 34 25  4  0
 32 27  4  0
  1 53  1  0
  2 54  1  0
  4 55  1  0
  6 56  1  0
  8 57  1  0
 12 58  1  0
 13 59  1  0
 15 60  1  0
 17 61  1  0
 19 62  1  0
 20 63  1  0
 24 64  1  0
 26 65  1  0
 28 66  1  0
 29 67  1  0
 30 68  1  0
 31 69  1  0
 33 70  1  0
 35 71  1  0
 37 72  1  0
 39 73  1  0
 41 74  1  0
 43 75  1  0
 45 76  1  0
 47 77  1  0
 49 78  1  0
 51 79  1  0
 52 80  1  0
M  END
