
     RDKit          3D

 80 91  0  0  0  0  0  0  0  0999 V2000
   -7.2722   -5.0351    1.1572 C   0  0  0  0  0  0  0  0  0  0  0  0
   -8.0712   -4.1363    0.4544 C   0  0  0  0  0  0  0  0  0  0  0  0
   -7.6774   -2.7982    0.2733 C   0  0  0  0  0  0  0  0  0  0  0  0
   -8.5054   -1.9222   -0.4386 C   0  0  0  0  0  0  0  0  0  0  0  0
   -8.1719   -0.5836   -0.6532 C   0  0  0  0  0  0  0  0  0  0  0  0
   -9.1004    0.1971   -1.3918 C   0  0  0  0  0  0  0  0  0  0  0  0
   -8.6908    1.5162   -1.5594 C   0  0  0  0  0  0  0  0  0  0  0  0
   -9.4281    2.4533   -2.2394 C   0  0  0  0  0  0  0  0  0  0  0  0
   -8.6274    3.9780   -2.2550 S   0  0  0  0  0  0  0  0  0  0  0  0
   -7.2956    3.3702   -1.3486 C   0  0  0  0  0  0  0  0  0  0  0  0
   -7.4687    2.0421   -1.0484 C   0  0  0  0  0  0  0  0  0  0  0  0
   -6.5424    1.2960   -0.3213 C   0  0  0  0  0  0  0  0  0  0  0  0
   -6.9181   -0.0718   -0.1198 C   0  0  0  0  0  0  0  0  0  0  0  0
   -6.0752   -0.9689    0.6083 C   0  0  0  0  0  0  0  0  0  0  0  0
   -4.7920   -0.4864    1.1703 C   0  0  0  0  0  0  0  0  0  0  0  0
   -4.7346    0.0478    2.4640 C   0  0  0  0  0  0  0  0  0  0  0  0
   -3.5246    0.5032    2.9922 C   0  0  0  0  0  0  0  0  0  0  0  0
   -2.3428    0.4353    2.2390 C   0  0  0  0  0  0  0  0  0  0  0  0
   -1.1191    0.8905    2.7563 C   0  0  0  0  0  0  0  0  0  0  0  0
    0.0648    0.8240    2.0028 C   0  0  0  0  0  0  0  0  0  0  0  0
    1.2892    1.2803    2.5198 C   0  0  0  0  0  0  0  0  0  0  0  0
    2.4724    1.2120    1.7668 C   0  0  0  0  0  0  0  0  0  0  0  0
    3.6951    1.6657    2.2842 C   0  0  0  0  0  0  0  0  0  0  0  0
    4.8644    1.5875    1.5246 C   0  0  0  0  0  0  0  0  0  0  0  0
    4.8388    1.0540    0.2297 C   0  0  0  0  0  0  0  0  0  0  0  0
    6.0799    0.9598   -0.5734 C   0  0  0  0  0  0  0  0  0  0  0  0
    6.4549    2.0589   -1.4140 C   0  0  0  0  0  0  0  0  0  0  0  0
    5.6999    3.2540   -1.5334 C   0  0  0  0  0  0  0  0  0  0  0  0
    6.0970    4.3052   -2.3630 C   0  0  0  0  0  0  0  0  0  0  0  0
    7.2646    4.1953   -3.1018 C   0  0  0  0  0  0  0  0  0  0  0  0
    8.0296    3.0350   -3.0086 C   0  0  0  0  0  0  0  0  0  0  0  0
    7.6395    1.9698   -2.1771 C   0  0  0  0  0  0  0  0  0  0  0  0
    8.4315    0.8175   -2.1089 C   0  0  0  0  0  0  0  0  0  0  0  0
    8.0990   -0.2743   -1.3047 C   0  0  0  0  0  0  0  0  0  0  0  0
    8.9875   -1.3819   -1.3286 C   0  0  0  0  0  0  0  0  0  0  0  0
    8.5808   -2.4242   -0.5013 C   0  0  0  0  0  0  0  0  0  0  0  0
    9.2830   -3.5956   -0.3650 C   0  0  0  0  0  0  0  0  0  0  0  0
    8.4977   -4.6638    0.7340 S   0  0  0  0  0  0  0  0  0  0  0  0
    7.2193   -3.5464    1.0205 C   0  0  0  0  0  0  0  0  0  0  0  0
    7.3982   -2.3961    0.2933 C   0  0  0  0  0  0  0  0  0  0  0  0
    6.5120   -1.3210    0.3338 C   0  0  0  0  0  0  0  0  0  0  0  0
    6.8858   -0.2196   -0.5029 C   0  0  0  0  0  0  0  0  0  0  0  0
    3.6143    0.6036   -0.2901 C   0  0  0  0  0  0  0  0  0  0  0  0
    2.4307    0.6748    0.4635 C   0  0  0  0  0  0  0  0  0  0  0  0
    1.2067    0.2201   -0.0531 C   0  0  0  0  0  0  0  0  0  0  0  0
    0.0233    0.2877    0.7008 C   0  0  0  0  0  0  0  0  0  0  0  0
   -1.2006   -0.1686    0.1832 C   0  0  0  0  0  0  0  0  0  0  0  0
   -2.3845   -0.1010    0.9354 C   0  0  0  0  0  0  0  0  0  0  0  0
   -3.6088   -0.5559    0.4168 C   0  0  0  0  0  0  0  0  0  0  0  0
   -6.4537   -2.3377    0.8061 C   0  0  0  0  0  0  0  0  0  0  0  0
   -5.6652   -3.2796    1.5159 C   0  0  0  0  0  0  0  0  0  0  0  0
   -6.0664   -4.6063    1.6892 C   0  0  0  0  0  0  0  0  0  0  0  0
   -7.5926   -6.0650    1.2873 H   0  0  0  0  0  0  0  0  0  0  0  0
   -9.0143   -4.4926    0.0446 H   0  0  0  0  0  0  0  0  0  0  0  0
   -9.4445   -2.3053   -0.8384 H   0  0  0  0  0  0  0  0  0  0  0  0
  -10.0303   -0.1963   -1.7829 H   0  0  0  0  0  0  0  0  0  0  0  0
  -10.3857    2.3426   -2.7291 H   0  0  0  0  0  0  0  0  0  0  0  0
   -6.4723    4.0232   -1.0937 H   0  0  0  0  0  0  0  0  0  0  0  0
   -5.6210    1.7231    0.0544 H   0  0  0  0  0  0  0  0  0  0  0  0
   -5.6380    0.1107    3.0676 H   0  0  0  0  0  0  0  0  0  0  0  0
   -3.5142    0.9122    4.0001 H   0  0  0  0  0  0  0  0  0  0  0  0
   -1.0883    1.3039    3.7627 H   0  0  0  0  0  0  0  0  0  0  0  0
    1.3220    1.6948    3.5259 H   0  0  0  0  0  0  0  0  0  0  0  0
    3.7491    2.0836    3.2870 H   0  0  0  0  0  0  0  0  0  0  0  0
    5.8014    1.9436    1.9484 H   0  0  0  0  0  0  0  0  0  0  0  0
    4.7761    3.3820   -0.9717 H   0  0  0  0  0  0  0  0  0  0  0  0
    5.4905    5.2047   -2.4271 H   0  0  0  0  0  0  0  0  0  0  0  0
    7.5813    5.0079   -3.7498 H   0  0  0  0  0  0  0  0  0  0  0  0
    8.9426    2.9680   -3.5972 H   0  0  0  0  0  0  0  0  0  0  0  0
    9.3406    0.7763   -2.7093 H   0  0  0  0  0  0  0  0  0  0  0  0
    9.8874   -1.4098   -1.9299 H   0  0  0  0  0  0  0  0  0  0  0  0
   10.2073   -3.8944   -0.8396 H   0  0  0  0  0  0  0  0  0  0  0  0
    6.4197   -3.8026    1.7021 H   0  0  0  0  0  0  0  0  0  0  0  0
    5.6202   -1.3283    0.9479 H   0  0  0  0  0  0  0  0  0  0  0  0
    3.5914    0.1891   -1.2971 H   0  0  0  0  0  0  0  0  0  0  0  0
    1.1747   -0.1946   -1.0593 H   0  0  0  0  0  0  0  0  0  0  0  0
   -1.2310   -0.5835   -0.8230 H   0  0  0  0  0  0  0  0  0  0  0  0
   -3.6501   -0.9719   -0.5891 H   0  0  0  0  0  0  0  0  0  0  0  0
   -4.7114   -2.9853    1.9505 H   0  0  0  0  0  0  0  0  0  0  0  0
   -5.4336   -5.2971    2.2399 H   0  0  0  0  0  0  0  0  0  0  0  0
  1  2  4  0
  2  3  4  0
  3  4  4  0
  4  5  4  0
  5  6  4  0
  6  7  4  0
  7  8  4  0
  8  9  4  0
  9 10  4  0
 10 11  4  0
 11 12  4  0
 12 13  4  0
 13 14  4  0
 14 15  1  0
 15 16  4  0
 16 17  4  0
 17 18  4  0
 18 19  4  0
 19 20  4  0
 20 21  4  0
 21 22  4  0
 22 23  4  0
 23 24  4  0
 24 25  4  0
 25 26  1  0
 26 27  4  0
 27 28  4  0
 28 29  4  0
 29 30  4  0
 30 31  4  0
 31 32  4  0
 32 33  4  0
 33 34  4  0
 34 35  4  0
 35 36  4  0
 36 37  4  0
 37 38  4  0
 38 39  4  0
 39 40  4  0
 40 41  4  0
 41 42  4  0
 25 43  4  0
 43 44  4  0
 44 45  4  0
 45 46  4  0
 46 47  4  0
 47 48  4  0
 48 49  4  0
 14 50  4  0
 50 51  4  0
 51 52  4  0
 52  1  4  0
 50  3  4  0
 13  5  4  0
 49 15  4  0
 11  7  4  0
 48 18  4  0
 46 20  4  0
 44 22  4  0
 42 26  4  0
 32 27  4  0
 42 34  4  0
 40 36  4  0
  1 53  1  0
  2 54  1  0
  4 55  1  0
  6 56  1  0
  8 57  1  0
 10 58  1  0
 12 59  1  0
 16 60  1  0
 17 61  1  0
 19 62  1  0
 21 63  1  0
 23 64  1  0
 24 65  1  0
 28 66  1  0
 29 67  1  0
 30 68  1  0
 31 69  1  0
 33 70  1  0
 35 71  1  0
 37 72  1  0
 39 73  1  0
 41 74  1  0
 43 75  1  0
 45 76  1  0
 47 77  1  0
 49 78  1  0
 51 79  1  0
 52 80  1  0
M  END
