
     RDKit          3D

 80 91  0  0  0  0  0  0  0  0999 V2000
   -8.3460   -0.6946   -4.9993 C   0  0  0  0  0  0  0  0  0  0  0  0
   -8.8192   -1.3904   -3.8861 C   0  0  0  0  0  0  0  0  0  0  0  0
   -8.1708   -1.2874   -2.6435 C   0  0  0  0  0  0  0  0  0  0  0  0
   -8.6349   -1.9819   -1.5159 C   0  0  0  0  0  0  0  0  0  0  0  0
   -7.9992   -1.8912   -0.2697 C   0  0  0  0  0  0  0  0  0  0  0  0
   -8.5542   -2.6365    0.7978 C   0  0  0  0  0  0  0  0  0  0  0  0
   -7.8570   -2.4858    1.9931 C   0  0  0  0  0  0  0  0  0  0  0  0
   -8.2331   -3.1259    3.1481 C   0  0  0  0  0  0  0  0  0  0  0  0
   -7.1749   -2.7384    4.4447 S   0  0  0  0  0  0  0  0  0  0  0  0
   -6.2177   -1.7137    3.4493 C   0  0  0  0  0  0  0  0  0  0  0  0
   -6.6928   -1.6659    2.1574 C   0  0  0  0  0  0  0  0  0  0  0  0
   -6.1165   -0.9116    1.1163 C   0  0  0  0  0  0  0  0  0  0  0  0
   -4.9259   -0.0877    1.3262 C   0  0  0  0  0  0  0  0  0  0  0  0
   -5.0424    1.2465    1.7333 C   0  0  0  0  0  0  0  0  0  0  0  0
   -3.9042    2.0300    1.9385 C   0  0  0  0  0  0  0  0  0  0  0  0
   -2.6213    1.4972    1.7407 C   0  0  0  0  0  0  0  0  0  0  0  0
   -1.4668    2.2707    1.9458 C   0  0  0  0  0  0  0  0  0  0  0  0
   -0.1820    1.7365    1.7494 C   0  0  0  0  0  0  0  0  0  0  0  0
    0.9733    2.5095    1.9559 C   0  0  0  0  0  0  0  0  0  0  0  0
    2.2574    1.9740    1.7622 C   0  0  0  0  0  0  0  0  0  0  0  0
    3.4111    2.7455    1.9691 C   0  0  0  0  0  0  0  0  0  0  0  0
    4.6812    2.1972    1.7754 C   0  0  0  0  0  0  0  0  0  0  0  0
    4.8289    0.8656    1.3704 C   0  0  0  0  0  0  0  0  0  0  0  0
    6.1586    0.2899    1.1685 C   0  0  0  0  0  0  0  0  0  0  0  0
    6.8927    0.3111   -0.0693 C   0  0  0  0  0  0  0  0  0  0  0  0
    6.3439    0.9166   -1.2199 C   0  0  0  0  0  0  0  0  0  0  0  0
    7.0184    0.9652   -2.4522 C   0  0  0  0  0  0  0  0  0  0  0  0
    6.4418    1.5765   -3.5784 C   0  0  0  0  0  0  0  0  0  0  0  0
    7.1215    1.6189   -4.7964 C   0  0  0  0  0  0  0  0  0  0  0  0
    8.3863    1.0508   -4.9039 C   0  0  0  0  0  0  0  0  0  0  0  0
    8.9712    0.4402   -3.7936 C   0  0  0  0  0  0  0  0  0  0  0  0
    8.2977    0.3903   -2.5612 C   0  0  0  0  0  0  0  0  0  0  0  0
    8.8731   -0.2208   -1.4365 C   0  0  0  0  0  0  0  0  0  0  0  0
    8.2148   -0.2792   -0.2000 C   0  0  0  0  0  0  0  0  0  0  0  0
    8.8898   -0.9214    0.8656 C   0  0  0  0  0  0  0  0  0  0  0  0
    8.1604   -0.9307    2.0512 C   0  0  0  0  0  0  0  0  0  0  0  0
    8.6385   -1.5054    3.2029 C   0  0  0  0  0  0  0  0  0  0  0  0
    7.5078   -1.3530    4.4873 S   0  0  0  0  0  0  0  0  0  0  0  0
    6.3830   -0.5165    3.4913 C   0  0  0  0  0  0  0  0  0  0  0  0
    6.8565   -0.3560    2.2080 C   0  0  0  0  0  0  0  0  0  0  0  0
    3.6751    0.0943    1.1604 C   0  0  0  0  0  0  0  0  0  0  0  0
    2.3905    0.6317    1.3516 C   0  0  0  0  0  0  0  0  0  0  0  0
    1.2354   -0.1398    1.1434 C   0  0  0  0  0  0  0  0  0  0  0  0
   -0.0491    0.3960    1.3371 C   0  0  0  0  0  0  0  0  0  0  0  0
   -1.2039   -0.3773    1.1298 C   0  0  0  0  0  0  0  0  0  0  0  0
   -2.4882    0.1557    1.3279 C   0  0  0  0  0  0  0  0  0  0  0  0
   -3.6427   -0.6200    1.1252 C   0  0  0  0  0  0  0  0  0  0  0  0
   -6.8200   -1.0519   -0.1314 C   0  0  0  0  0  0  0  0  0  0  0  0
   -6.3813   -0.3671   -1.2848 C   0  0  0  0  0  0  0  0  0  0  0  0
   -7.0312   -0.4706   -2.5270 C   0  0  0  0  0  0  0  0  0  0  0  0
   -6.5665    0.2245   -3.6562 C   0  0  0  0  0  0  0  0  0  0  0  0
   -7.2194    0.1128   -4.8844 C   0  0  0  0  0  0  0  0  0  0  0  0
   -8.8571   -0.7841   -5.9542 H   0  0  0  0  0  0  0  0  0  0  0  0
   -9.7016   -2.0169   -3.9959 H   0  0  0  0  0  0  0  0  0  0  0  0
   -9.5186   -2.6107   -1.6208 H   0  0  0  0  0  0  0  0  0  0  0  0
   -9.4328   -3.2607    0.6905 H   0  0  0  0  0  0  0  0  0  0  0  0
   -9.0637   -3.7982    3.3132 H   0  0  0  0  0  0  0  0  0  0  0  0
   -5.3627   -1.2092    3.8789 H   0  0  0  0  0  0  0  0  0  0  0  0
   -6.0261    1.6837    1.8945 H   0  0  0  0  0  0  0  0  0  0  0  0
   -4.0297    3.0628    2.2565 H   0  0  0  0  0  0  0  0  0  0  0  0
   -1.5708    3.3060    2.2659 H   0  0  0  0  0  0  0  0  0  0  0  0
    0.8717    3.5456    2.2741 H   0  0  0  0  0  0  0  0  0  0  0  0
    3.3318    3.7835    2.2844 H   0  0  0  0  0  0  0  0  0  0  0  0
    5.5598    2.8173    1.9431 H   0  0  0  0  0  0  0  0  0  0  0  0
    5.3545    1.3703   -1.1660 H   0  0  0  0  0  0  0  0  0  0  0  0
    5.4532    2.0263   -3.5133 H   0  0  0  0  0  0  0  0  0  0  0  0
    6.6619    2.0956   -5.6582 H   0  0  0  0  0  0  0  0  0  0  0  0
    8.9189    1.0822   -5.8506 H   0  0  0  0  0  0  0  0  0  0  0  0
    9.9611    0.0017   -3.8975 H   0  0  0  0  0  0  0  0  0  0  0  0
    9.8644   -0.6620   -1.5356 H   0  0  0  0  0  0  0  0  0  0  0  0
    9.8748   -1.3601    0.7639 H   0  0  0  0  0  0  0  0  0  0  0  0
    9.5818   -2.0062    3.3724 H   0  0  0  0  0  0  0  0  0  0  0  0
    5.4409   -0.1947    3.9144 H   0  0  0  0  0  0  0  0  0  0  0  0
    3.7859   -0.9419    0.8430 H   0  0  0  0  0  0  0  0  0  0  0  0
    1.3381   -1.1766    0.8270 H   0  0  0  0  0  0  0  0  0  0  0  0
   -1.1012   -1.4126    0.8088 H   0  0  0  0  0  0  0  0  0  0  0  0
   -3.5470   -1.6575    0.8072 H   0  0  0  0  0  0  0  0  0  0  0  0
   -5.5015    0.2730   -1.2252 H   0  0  0  0  0  0  0  0  0  0  0  0
   -5.6868    0.8608   -3.5860 H   0  0  0  0  0  0  0  0  0  0  0  0
   -6.8467    0.6561   -5.7486 H   0  0  0  0  0  0  0  0  0  0  0  0
  1  2  4  0
  2  3  4  0
  3  4  4  0
  4  5  4  0
  5  6  4  0
  6  7  4  0
  7  8  4  0
  8  9  4  0
  9 10  4  0
 10 11  4  0
 11 12  4  0
 12 13  1  0
 13 14  4  0
 14 15  4  0
 15 16  4  0
 16 17  4  0
 17 18  4  0
 18 19  4  0
 19 20  4  0
 20 21  4  0
 21 22  4  0
 22 23  4  0
 23 24  1  0
 24 25  4  0
 25 26  4  0
 26 27  4  0
 27 28  4  0
 28 29  4  0
 29 30  4  0
 30 31  4  0
 31 32  4  0
 32 33  4  0
 33 34  4  0
 34 35  4  0
 35 36  4  0
 36 37  4  0
 37 38  4  0
 38 39  4  0
 39 40  4  0
 23 41  4  0
 41 42  4  0
 42 43  4  0
 43 44  4  0
 44 45  4  0
 45 46  4  0
 46 47  4  0
 12 48  4  0
 48 49  4  0
 49 50  4  0
 50 51  4  0
 51 52  4  0
 52  1  4  0
 50  3  4  0
 48  5  4  0
 11  7  4  0
 47 13  4  0
 46 16  4  0
 44 18  4  0
 42 20  4  0
 40 24  4  0
 34 25  4  0
 40 36  4  0
 32 27  4  0
  1 53  1  0
  2 54  1  0
  4 55  1  0
  6 56  1  0
  8 57  1  0
 10 58  1  0
 14 59  1  0
 15 60  1  0
 17 61  1  0
 19 62  1  0
 21 63  1  0
 22 64  1  0
 26 65  1  0
 28 66  1  0
 29 67  1  0
 30 68  1  0
 31 69  1  0
 33 70  1  0
 35 71  1  0
 37 72  1  0
 39 73  1  0
 41 74  1  0
 43 75  1  0
 45 76  1  0
 47 77  1  0
 49 78  1  0
 51 79  1  0
 52 80  1  0
M  END
