
     RDKit          3D

 80 91  0  0  0  0  0  0  0  0999 V2000
    8.5477    1.3422   -1.8332 C   0  0  0  0  0  0  0  0  0  0  0  0
    7.2730    1.1435   -2.3717 C   0  0  0  0  0  0  0  0  0  0  0  0
    6.3479    0.3026   -1.7401 C   0  0  0  0  0  0  0  0  0  0  0  0
    5.0046    0.0956   -2.3027 C   0  0  0  0  0  0  0  0  0  0  0  0
    4.8349   -0.3766   -3.6110 C   0  0  0  0  0  0  0  0  0  0  0  0
    3.5576   -0.5752   -4.1437 C   0  0  0  0  0  0  0  0  0  0  0  0
    2.4121   -0.3043   -3.3813 C   0  0  0  0  0  0  0  0  0  0  0  0
    1.1215   -0.4981   -3.9014 C   0  0  0  0  0  0  0  0  0  0  0  0
   -0.0254   -0.2244   -3.1369 C   0  0  0  0  0  0  0  0  0  0  0  0
   -1.3165   -0.4183   -3.6564 C   0  0  0  0  0  0  0  0  0  0  0  0
   -2.4627   -0.1438   -2.8919 C   0  0  0  0  0  0  0  0  0  0  0  0
   -3.7516   -0.3381   -3.4091 C   0  0  0  0  0  0  0  0  0  0  0  0
   -4.8823   -0.0602   -2.6354 C   0  0  0  0  0  0  0  0  0  0  0  0
   -4.7588    0.4207   -1.3251 C   0  0  0  0  0  0  0  0  0  0  0  0
   -5.9491    0.7159   -0.5121 C   0  0  0  0  0  0  0  0  0  0  0  0
   -6.9313   -0.2632   -0.2855 C   0  0  0  0  0  0  0  0  0  0  0  0
   -8.0780    0.0011    0.4859 C   0  0  0  0  0  0  0  0  0  0  0  0
   -9.0527   -0.9867    0.7066 C   0  0  0  0  0  0  0  0  0  0  0  0
  -10.2004   -0.7383    1.4704 C   0  0  0  0  0  0  0  0  0  0  0  0
  -11.1361   -1.7902    1.6439 C   0  0  0  0  0  0  0  0  0  0  0  0
  -12.2305   -1.4146    2.4206 C   0  0  0  0  0  0  0  0  0  0  0  0
  -13.2638   -2.2664    2.7224 C   0  0  0  0  0  0  0  0  0  0  0  0
  -14.4482   -1.4840    3.6969 S   0  0  0  0  0  0  0  0  0  0  0  0
  -13.5685   -0.0039    3.7100 C   0  0  0  0  0  0  0  0  0  0  0  0
  -12.4057   -0.1133    2.9887 C   0  0  0  0  0  0  0  0  0  0  0  0
  -11.5032    0.9374    2.8349 C   0  0  0  0  0  0  0  0  0  0  0  0
  -10.3781    0.5827    2.0476 C   0  0  0  0  0  0  0  0  0  0  0  0
   -9.3939    1.5524    1.8171 C   0  0  0  0  0  0  0  0  0  0  0  0
   -8.2502    1.2811    1.0476 C   0  0  0  0  0  0  0  0  0  0  0  0
   -7.2725    2.2616    0.8255 C   0  0  0  0  0  0  0  0  0  0  0  0
   -6.1387    1.9816    0.0573 C   0  0  0  0  0  0  0  0  0  0  0  0
   -3.4649    0.6137   -0.8114 C   0  0  0  0  0  0  0  0  0  0  0  0
   -2.3161    0.3377   -1.5758 C   0  0  0  0  0  0  0  0  0  0  0  0
   -1.0246    0.5301   -1.0567 C   0  0  0  0  0  0  0  0  0  0  0  0
    0.1224    0.2550   -1.8208 C   0  0  0  0  0  0  0  0  0  0  0  0
    1.4135    0.4479   -1.3007 C   0  0  0  0  0  0  0  0  0  0  0  0
    2.5608    0.1733   -2.0640 C   0  0  0  0  0  0  0  0  0  0  0  0
    3.8535    0.3657   -1.5430 C   0  0  0  0  0  0  0  0  0  0  0  0
    6.7408   -0.3367   -0.5520 C   0  0  0  0  0  0  0  0  0  0  0  0
    8.0204   -0.1496    0.0027 C   0  0  0  0  0  0  0  0  0  0  0  0
    8.4034   -0.7964    1.1902 C   0  0  0  0  0  0  0  0  0  0  0  0
    9.6731   -0.6194    1.7552 C   0  0  0  0  0  0  0  0  0  0  0  0
    9.9795   -1.3094    2.9562 C   0  0  0  0  0  0  0  0  0  0  0  0
   11.2699   -1.0485    3.4134 C   0  0  0  0  0  0  0  0  0  0  0  0
   11.7878   -1.6046    4.5566 C   0  0  0  0  0  0  0  0  0  0  0  0
   13.4024   -1.0719    4.8293 S   0  0  0  0  0  0  0  0  0  0  0  0
   13.3998   -0.0963    3.4106 C   0  0  0  0  0  0  0  0  0  0  0  0
   12.1972   -0.1810    2.7542 C   0  0  0  0  0  0  0  0  0  0  0  0
   11.9232    0.5086    1.5745 C   0  0  0  0  0  0  0  0  0  0  0  0
   10.6146    0.2609    1.0858 C   0  0  0  0  0  0  0  0  0  0  0  0
   10.2136    0.8949   -0.0973 C   0  0  0  0  0  0  0  0  0  0  0  0
    8.9348    0.7022   -0.6468 C   0  0  0  0  0  0  0  0  0  0  0  0
    9.2359    2.0068   -2.3509 H   0  0  0  0  0  0  0  0  0  0  0  0
    7.0019    1.6644   -3.2881 H   0  0  0  0  0  0  0  0  0  0  0  0
    5.7029   -0.6068   -4.2261 H   0  0  0  0  0  0  0  0  0  0  0  0
    3.4665   -0.9471   -5.1619 H   0  0  0  0  0  0  0  0  0  0  0  0
    1.0079   -0.8681   -4.9188 H   0  0  0  0  0  0  0  0  0  0  0  0
   -1.4316   -0.7894   -4.6733 H   0  0  0  0  0  0  0  0  0  0  0  0
   -3.8888   -0.7062   -4.4235 H   0  0  0  0  0  0  0  0  0  0  0  0
   -5.8679   -0.2112   -3.0717 H   0  0  0  0  0  0  0  0  0  0  0  0
   -6.7932   -1.2563   -0.7113 H   0  0  0  0  0  0  0  0  0  0  0  0
   -8.9072   -1.9733    0.2683 H   0  0  0  0  0  0  0  0  0  0  0  0
  -11.0079   -2.7762    1.2162 H   0  0  0  0  0  0  0  0  0  0  0  0
  -13.4009   -3.2993    2.4337 H   0  0  0  0  0  0  0  0  0  0  0  0
  -13.9598    0.8504    4.2449 H   0  0  0  0  0  0  0  0  0  0  0  0
  -11.6399    1.9204    3.2667 H   0  0  0  0  0  0  0  0  0  0  0  0
   -9.5142    2.5470    2.2446 H   0  0  0  0  0  0  0  0  0  0  0  0
   -7.3851    3.2582    1.2470 H   0  0  0  0  0  0  0  0  0  0  0  0
   -5.4058    2.7698   -0.1049 H   0  0  0  0  0  0  0  0  0  0  0  0
   -3.3517    0.9758    0.2095 H   0  0  0  0  0  0  0  0  0  0  0  0
   -0.9100    0.9009   -0.0395 H   0  0  0  0  0  0  0  0  0  0  0  0
    1.5279    0.8186   -0.2836 H   0  0  0  0  0  0  0  0  0  0  0  0
    3.9680    0.7450   -0.5285 H   0  0  0  0  0  0  0  0  0  0  0  0
    6.0370   -1.0035   -0.0553 H   0  0  0  0  0  0  0  0  0  0  0  0
    7.6880   -1.4543    1.6822 H   0  0  0  0  0  0  0  0  0  0  0  0
    9.2812   -1.9668    3.4580 H   0  0  0  0  0  0  0  0  0  0  0  0
   11.3230   -2.2906    5.2512 H   0  0  0  0  0  0  0  0  0  0  0  0
   14.2792    0.4760    3.1491 H   0  0  0  0  0  0  0  0  0  0  0  0
   12.6283    1.1637    1.0792 H   0  0  0  0  0  0  0  0  0  0  0  0
   10.9100    1.5572   -0.6101 H   0  0  0  0  0  0  0  0  0  0  0  0
  1  2  4  0
  2  3  4  0
  3  4  1  0
  4  5  4  0
  5  6  4  0
  6  7  4  0
  7  8  4  0
  8  9  4  0
  9 10  4  0
 10 11  4  0
 11 12  4  0
 12 13  4  0
 13 14  4  0
 14 15  1  0
 15 16  4  0
 16 17  4  0
 17 18  4  0
 18 19  4  0
 19 20  4  0
 20 21  4  0
 21 22  4  0
 22 23  4  0
 23 24  4  0
 24 25  4  0
 25 26  4  0
 26 27  4  0
 27 28  4  0
 28 29  4  0
 29 30  4  0
 30 31  4  0
 14 32  4  0
 32 33  4  0
 33 34  4  0
 34 35  4  0
 35 36  4  0
 36 37  4  0
 37 38  4  0
  3 39  4  0
 39 40  4  0
 40 41  4  0
 41 42  4  0
 42 43  4  0
 43 44  4  0
 44 45  4  0
 45 46  4  0
 46 47  4  0
 47 48  4  0
 48 49  4  0
 49 50  4  0
 50 51  4  0
 51 52  4  0
 52  1  4  0
 38  4  4  0
 52 40  4  0
 37  7  4  0
 50 42  4  0
 35  9  4  0
 48 44  4  0
 33 11  4  0
 31 15  4  0
 29 17  4  0
 27 19  4  0
 25 21  4  0
  1 53  1  0
  2 54  1  0
  5 55  1  0
  6 56  1  0
  8 57  1  0
 10 58  1  0
 12 59  1  0
 13 60  1  0
 16 61  1  0
 18 62  1  0
 20 63  1  0
 22 64  1  0
 24 65  1  0
 26 66  1  0
 28 67  1  0
 30 68  1  0
 31 69  1  0
 32 70  1  0
 34 71  1  0
 36 72  1  0
 38 73  1  0
 39 74  1  0
 41 75  1  0
 43 76  1  0
 45 77  1  0
 47 78  1  0
 49 79  1  0
 51 80  1  0
M  END
