
     RDKit          3D

 50 55  0  0  0  0  0  0  0  0999 V2000
   -8.6216    1.6646   -0.9558 C   0  0  0  0  0  0  0  0  0  0  0  0
   -8.3970    1.1506    0.3187 C   0  0  0  0  0  0  0  0  0  0  0  0
   -7.1871    0.5162    0.6143 C   0  0  0  0  0  0  0  0  0  0  0  0
   -6.1812    0.3860   -0.3577 C   0  0  0  0  0  0  0  0  0  0  0  0
   -4.9071   -0.2820   -0.0464 C   0  0  0  0  0  0  0  0  0  0  0  0
   -4.8819   -1.5842    0.4706 C   0  0  0  0  0  0  0  0  0  0  0  0
   -3.6711   -2.2199    0.7620 C   0  0  0  0  0  0  0  0  0  0  0  0
   -2.4485   -1.5683    0.5454 C   0  0  0  0  0  0  0  0  0  0  0  0
   -1.2234   -2.1930    0.8321 C   0  0  0  0  0  0  0  0  0  0  0  0
    0.0012   -1.5387    0.6154 C   0  0  0  0  0  0  0  0  0  0  0  0
    1.2271   -2.1635    0.9006 C   0  0  0  0  0  0  0  0  0  0  0  0
    2.4509   -1.5088    0.6835 C   0  0  0  0  0  0  0  0  0  0  0  0
    3.6748   -2.1322    0.9655 C   0  0  0  0  0  0  0  0  0  0  0  0
    4.8843   -1.4672    0.7425 C   0  0  0  0  0  0  0  0  0  0  0  0
    4.9068   -0.1615    0.2342 C   0  0  0  0  0  0  0  0  0  0  0  0
    6.1800    0.5385    0.0000 C   0  0  0  0  0  0  0  0  0  0  0  0
    7.1776   -0.0272   -0.8114 C   0  0  0  0  0  0  0  0  0  0  0  0
    8.3872    0.6364   -1.0345 C   0  0  0  0  0  0  0  0  0  0  0  0
    8.6200    1.8777   -0.4479 C   0  0  0  0  0  0  0  0  0  0  0  0
    7.6445    2.4561    0.3602 C   0  0  0  0  0  0  0  0  0  0  0  0
    6.4348    1.7918    0.5813 C   0  0  0  0  0  0  0  0  0  0  0  0
    3.6771    0.4587   -0.0459 C   0  0  0  0  0  0  0  0  0  0  0  0
    2.4507   -0.1965    0.1705 C   0  0  0  0  0  0  0  0  0  0  0  0
    1.2244    0.4272   -0.1151 C   0  0  0  0  0  0  0  0  0  0  0  0
   -0.0003   -0.2276    0.1007 C   0  0  0  0  0  0  0  0  0  0  0  0
   -1.2263    0.3966   -0.1863 C   0  0  0  0  0  0  0  0  0  0  0  0
   -2.4510   -0.2576    0.0284 C   0  0  0  0  0  0  0  0  0  0  0  0
   -3.6786    0.3665   -0.2606 C   0  0  0  0  0  0  0  0  0  0  0  0
   -6.4282    0.9120   -1.6368 C   0  0  0  0  0  0  0  0  0  0  0  0
   -7.6379    1.5455   -1.9342 C   0  0  0  0  0  0  0  0  0  0  0  0
   -9.5624    2.1574   -1.1864 H   0  0  0  0  0  0  0  0  0  0  0  0
   -9.1612    1.2443    1.0858 H   0  0  0  0  0  0  0  0  0  0  0  0
   -7.0276    0.1313    1.6195 H   0  0  0  0  0  0  0  0  0  0  0  0
   -5.8123   -2.1230    0.6395 H   0  0  0  0  0  0  0  0  0  0  0  0
   -3.6934   -3.2328    1.1578 H   0  0  0  0  0  0  0  0  0  0  0  0
   -1.2229   -3.2060    1.2304 H   0  0  0  0  0  0  0  0  0  0  0  0
    1.2288   -3.1770    1.2976 H   0  0  0  0  0  0  0  0  0  0  0  0
    3.6992   -3.1438    1.3647 H   0  0  0  0  0  0  0  0  0  0  0  0
    5.8160   -1.9762    0.9821 H   0  0  0  0  0  0  0  0  0  0  0  0
    7.0112   -0.9913   -1.2879 H   0  0  0  0  0  0  0  0  0  0  0  0
    9.1450    0.1833   -1.6684 H   0  0  0  0  0  0  0  0  0  0  0  0
    9.5607    2.3940   -0.6205 H   0  0  0  0  0  0  0  0  0  0  0  0
    7.8240    3.4233    0.8223 H   0  0  0  0  0  0  0  0  0  0  0  0
    5.6906    2.2559    1.2255 H   0  0  0  0  0  0  0  0  0  0  0  0
    3.6770    1.4690   -0.4526 H   0  0  0  0  0  0  0  0  0  0  0  0
    1.2235    1.4405   -0.5131 H   0  0  0  0  0  0  0  0  0  0  0  0
   -1.2272    1.4098   -0.5845 H   0  0  0  0  0  0  0  0  0  0  0  0
   -3.6808    1.3834   -0.6506 H   0  0  0  0  0  0  0  0  0  0  0  0
   -5.6773    0.8191   -2.4190 H   0  0  0  0  0  0  0  0  0  0  0  0
   -7.8110    1.9422   -2.9312 H   0  0  0  0  0  0  0  0  0  0  0  0
  1  2  4  0
  2  3  4  0
  3  4  4  0
  4  5  1  0
  5  6  4  0
  6  7  4  0
  7  8  4  0
  8  9  4  0
  9 10  4  0
 10 11  4  0
 11 12  4  0
 12 13  4  0
 13 14  4  0
 14 15  4  0
 15 16  1  0
 16 17  4  0
 17 18  4  0
 18 19  4  0
 19 20  4  0
 20 21  4  0
 15 22  4  0
 22 23  4  0
 23 24  4  0
 24 25  4  0
 25 26  4  0
 26 27  4  0
 27 28  4  0
  4 29  4  0
 29 30  4  0
 30  1  4  0
 28  5  4  0
 27  8  4  0
 25 10  4  0
 23 12  4  0
 21 16  4  0
  1 31  1  0
  2 32  1  0
  3 33  1  0
  6 34  1  0
  7 35  1  0
  9 36  1  0
 11 37  1  0
 13 38  1  0
 14 39  1  0
 17 40  1  0
 18 41  1  0
 19 42  1  0
 20 43  1  0
 21 44  1  0
 22 45  1  0
 24 46  1  0
 26 47  1  0
 28 48  1  0
 29 49  1  0
 30 50  1  0
M  END
