
     RDKit          3D

 78 89  0  0  0  0  0  0  0  0999 V2000
  -10.7252   -3.6207   -1.2674 C   0  0  0  0  0  0  0  0  0  0  0  0
   -9.6509   -3.5041   -0.3875 C   0  0  0  0  0  0  0  0  0  0  0  0
   -8.7420   -2.4421   -0.5060 C   0  0  0  0  0  0  0  0  0  0  0  0
   -8.9179   -1.4818   -1.5276 C   0  0  0  0  0  0  0  0  0  0  0  0
  -10.0104   -1.6050   -2.4196 C   0  0  0  0  0  0  0  0  0  0  0  0
  -10.9036   -2.6771   -2.2772 C   0  0  0  0  0  0  0  0  0  0  0  0
  -10.1805   -0.6527   -3.4305 C   0  0  0  0  0  0  0  0  0  0  0  0
   -9.2862    0.4100   -3.5640 C   0  0  0  0  0  0  0  0  0  0  0  0
   -8.2001    0.5477   -2.6900 C   0  0  0  0  0  0  0  0  0  0  0  0
   -7.3066    1.6135   -2.8275 C   0  0  0  0  0  0  0  0  0  0  0  0
   -6.2286    1.7482   -1.9557 C   0  0  0  0  0  0  0  0  0  0  0  0
   -6.0119    0.8225   -0.9214 C   0  0  0  0  0  0  0  0  0  0  0  0
   -4.8555    1.0332   -0.0363 C   0  0  0  0  0  0  0  0  0  0  0  0
   -4.9943    1.7382    1.1652 C   0  0  0  0  0  0  0  0  0  0  0  0
   -3.8944    1.9438    2.0015 C   0  0  0  0  0  0  0  0  0  0  0  0
   -2.6273    1.4518    1.6537 C   0  0  0  0  0  0  0  0  0  0  0  0
   -1.5112    1.6525    2.4825 C   0  0  0  0  0  0  0  0  0  0  0  0
   -0.2416    1.1626    2.1328 C   0  0  0  0  0  0  0  0  0  0  0  0
    0.8754    1.3654    2.9607 C   0  0  0  0  0  0  0  0  0  0  0  0
    2.1455    0.8794    2.6089 C   0  0  0  0  0  0  0  0  0  0  0  0
    3.2620    1.0847    3.4336 C   0  0  0  0  0  0  0  0  0  0  0  0
    4.5195    0.5985    3.0673 C   0  0  0  0  0  0  0  0  0  0  0  0
    4.6917   -0.1025    1.8681 C   0  0  0  0  0  0  0  0  0  0  0  0
    6.0166   -0.6110    1.4789 C   0  0  0  0  0  0  0  0  0  0  0  0
    6.3934   -1.8879    1.9268 C   0  0  0  0  0  0  0  0  0  0  0  0
    7.6330   -2.4296    1.5944 C   0  0  0  0  0  0  0  0  0  0  0  0
    8.5326   -1.7089    0.8039 C   0  0  0  0  0  0  0  0  0  0  0  0
    9.7802   -2.2504    0.4680 C   0  0  0  0  0  0  0  0  0  0  0  0
   10.6814   -1.5340   -0.3206 C   0  0  0  0  0  0  0  0  0  0  0  0
   10.3571   -0.2576   -0.7933 C   0  0  0  0  0  0  0  0  0  0  0  0
   11.2561    0.4709   -1.5865 C   0  0  0  0  0  0  0  0  0  0  0  0
   10.9235    1.7416   -2.0519 C   0  0  0  0  0  0  0  0  0  0  0  0
    9.6878    2.2998   -1.7298 C   0  0  0  0  0  0  0  0  0  0  0  0
    8.7691    1.5941   -0.9385 C   0  0  0  0  0  0  0  0  0  0  0  0
    9.1005    0.3052   -0.4637 C   0  0  0  0  0  0  0  0  0  0  0  0
    8.1784   -0.4195    0.3391 C   0  0  0  0  0  0  0  0  0  0  0  0
    6.9172    0.1405    0.6726 C   0  0  0  0  0  0  0  0  0  0  0  0
    6.6215    1.4301    0.1805 C   0  0  0  0  0  0  0  0  0  0  0  0
    7.5275    2.1429   -0.6087 C   0  0  0  0  0  0  0  0  0  0  0  0
    3.5741   -0.3126    1.0451 C   0  0  0  0  0  0  0  0  0  0  0  0
    2.3027    0.1711    1.3997 C   0  0  0  0  0  0  0  0  0  0  0  0
    1.1850   -0.0335    0.5740 C   0  0  0  0  0  0  0  0  0  0  0  0
   -0.0850    0.4541    0.9253 C   0  0  0  0  0  0  0  0  0  0  0  0
   -1.2018    0.2516    0.0971 C   0  0  0  0  0  0  0  0  0  0  0  0
   -2.4712    0.7419    0.4453 C   0  0  0  0  0  0  0  0  0  0  0  0
   -3.5878    0.5416   -0.3849 C   0  0  0  0  0  0  0  0  0  0  0  0
   -6.9077   -0.2724   -0.7651 C   0  0  0  0  0  0  0  0  0  0  0  0
   -8.0042   -0.4011   -1.6577 C   0  0  0  0  0  0  0  0  0  0  0  0
   -6.7631   -1.2519    0.2411 C   0  0  0  0  0  0  0  0  0  0  0  0
   -7.6609   -2.3146    0.3693 C   0  0  0  0  0  0  0  0  0  0  0  0
  -11.4232   -4.4476   -1.1664 H   0  0  0  0  0  0  0  0  0  0  0  0
   -9.5275   -4.2505    0.3942 H   0  0  0  0  0  0  0  0  0  0  0  0
  -11.7478   -2.7852   -2.9546 H   0  0  0  0  0  0  0  0  0  0  0  0
  -11.0131   -0.7290   -4.1263 H   0  0  0  0  0  0  0  0  0  0  0  0
   -9.4480    1.1324   -4.3612 H   0  0  0  0  0  0  0  0  0  0  0  0
   -7.4408    2.3519   -3.6147 H   0  0  0  0  0  0  0  0  0  0  0  0
   -5.5483    2.5888   -2.0831 H   0  0  0  0  0  0  0  0  0  0  0  0
   -5.9664    2.1311    1.4569 H   0  0  0  0  0  0  0  0  0  0  0  0
   -4.0373    2.4945    2.9286 H   0  0  0  0  0  0  0  0  0  0  0  0
   -1.6331    2.2009    3.4147 H   0  0  0  0  0  0  0  0  0  0  0  0
    0.7546    1.9128    3.8938 H   0  0  0  0  0  0  0  0  0  0  0  0
    3.1641    1.6288    4.3704 H   0  0  0  0  0  0  0  0  0  0  0  0
    5.3705    0.7745    3.7225 H   0  0  0  0  0  0  0  0  0  0  0  0
    5.7108   -2.4704    2.5435 H   0  0  0  0  0  0  0  0  0  0  0  0
    7.8877   -3.4217    1.9604 H   0  0  0  0  0  0  0  0  0  0  0  0
   10.0645   -3.2402    0.8188 H   0  0  0  0  0  0  0  0  0  0  0  0
   11.6414   -1.9846   -0.5619 H   0  0  0  0  0  0  0  0  0  0  0  0
   12.2254    0.0522   -1.8480 H   0  0  0  0  0  0  0  0  0  0  0  0
   11.6276    2.2975   -2.6655 H   0  0  0  0  0  0  0  0  0  0  0  0
    9.4457    3.2930   -2.1014 H   0  0  0  0  0  0  0  0  0  0  0  0
    5.6681    1.9035    0.4091 H   0  0  0  0  0  0  0  0  0  0  0  0
    7.2481    3.1332   -0.9613 H   0  0  0  0  0  0  0  0  0  0  0  0
    3.7042   -0.8582    0.1114 H   0  0  0  0  0  0  0  0  0  0  0  0
    1.3062   -0.5800   -0.3598 H   0  0  0  0  0  0  0  0  0  0  0  0
   -1.0811   -0.2966   -0.8358 H   0  0  0  0  0  0  0  0  0  0  0  0
   -3.4752   -0.0072   -1.3190 H   0  0  0  0  0  0  0  0  0  0  0  0
   -5.9364   -1.2001    0.9475 H   0  0  0  0  0  0  0  0  0  0  0  0
   -7.5024   -3.0414    1.1629 H   0  0  0  0  0  0  0  0  0  0  0  0
  1  2  4  0
  2  3  4  0
  3  4  4  0
  4  5  4  0
  5  6  4  0
  5  7  4  0
  7  8  4  0
  8  9  4  0
  9 10  4  0
 10 11  4  0
 11 12  4  0
 12 13  1  0
 13 14  4  0
 14 15  4  0
 15 16  4  0
 16 17  4  0
 17 18  4  0
 18 19  4  0
 19 20  4  0
 20 21  4  0
 21 22  4  0
 22 23  4  0
 23 24  1  0
 24 25  4  0
 25 26  4  0
 26 27  4  0
 27 28  4  0
 28 29  4  0
 29 30  4  0
 30 31  4  0
 31 32  4  0
 32 33  4  0
 33 34  4  0
 34 35  4  0
 35 36  4  0
 36 37  4  0
 37 38  4  0
 38 39  4  0
 23 40  4  0
 40 41  4  0
 41 42  4  0
 42 43  4  0
 43 44  4  0
 44 45  4  0
 45 46  4  0
 12 47  4  0
 47 48  4  0
 47 49  4  0
 49 50  4  0
  6  1  4  0
 48  9  4  0
 50  3  4  0
 48  4  4  0
 46 13  4  0
 45 16  4  0
 43 18  4  0
 41 20  4  0
 37 24  4  0
 36 27  4  0
 35 30  4  0
 39 34  4  0
  1 51  1  0
  2 52  1  0
  6 53  1  0
  7 54  1  0
  8 55  1  0
 10 56  1  0
 11 57  1  0
 14 58  1  0
 15 59  1  0
 17 60  1  0
 19 61  1  0
 21 62  1  0
 22 63  1  0
 25 64  1  0
 26 65  1  0
 28 66  1  0
 29 67  1  0
 31 68  1  0
 32 69  1  0
 33 70  1  0
 38 71  1  0
 39 72  1  0
 40 73  1  0
 42 74  1  0
 44 75  1  0
 46 76  1  0
 49 77  1  0
 50 78  1  0
M  END
