
     RDKit          3D

 78 89  0  0  0  0  0  0  0  0999 V2000
   10.7284   -0.2151   -3.3219 C   0  0  0  0  0  0  0  0  0  0  0  0
   10.9902   -1.3467   -2.5518 C   0  0  0  0  0  0  0  0  0  0  0  0
   10.1230   -1.7221   -1.5151 C   0  0  0  0  0  0  0  0  0  0  0  0
    8.9715   -0.9425   -1.2500 C   0  0  0  0  0  0  0  0  0  0  0  0
    8.7118    0.2041   -2.0339 C   0  0  0  0  0  0  0  0  0  0  0  0
    9.5962    0.5554   -3.0646 C   0  0  0  0  0  0  0  0  0  0  0  0
    7.5742    0.9690   -1.7657 C   0  0  0  0  0  0  0  0  0  0  0  0
    6.7006    0.6083   -0.7367 C   0  0  0  0  0  0  0  0  0  0  0  0
    6.9265   -0.5308    0.0660 C   0  0  0  0  0  0  0  0  0  0  0  0
    6.0566   -0.9255    1.1209 C   0  0  0  0  0  0  0  0  0  0  0  0
    4.8380   -0.1757    1.4633 C   0  0  0  0  0  0  0  0  0  0  0  0
    4.8612    0.8099    2.4569 C   0  0  0  0  0  0  0  0  0  0  0  0
    3.7033    1.5205    2.7817 C   0  0  0  0  0  0  0  0  0  0  0  0
    2.4936    1.2606    2.1202 C   0  0  0  0  0  0  0  0  0  0  0  0
    1.3213    1.9675    2.4339 C   0  0  0  0  0  0  0  0  0  0  0  0
    0.1102    1.7083    1.7706 C   0  0  0  0  0  0  0  0  0  0  0  0
   -1.0622    2.4166    2.0834 C   0  0  0  0  0  0  0  0  0  0  0  0
   -2.2724    2.1591    1.4189 C   0  0  0  0  0  0  0  0  0  0  0  0
   -3.4427    2.8679    1.7293 C   0  0  0  0  0  0  0  0  0  0  0  0
   -4.6379    2.6012    1.0576 C   0  0  0  0  0  0  0  0  0  0  0  0
   -4.6933    1.6177    0.0630 C   0  0  0  0  0  0  0  0  0  0  0  0
   -5.9511    1.3387   -0.6472 C   0  0  0  0  0  0  0  0  0  0  0  0
   -6.9304    0.4367   -0.1444 C   0  0  0  0  0  0  0  0  0  0  0  0
   -6.7785   -0.2731    1.0664 C   0  0  0  0  0  0  0  0  0  0  0  0
   -7.7603   -1.1499    1.5345 C   0  0  0  0  0  0  0  0  0  0  0  0
   -8.9359   -1.3542    0.8084 C   0  0  0  0  0  0  0  0  0  0  0  0
   -9.9296   -2.2311    1.2681 C   0  0  0  0  0  0  0  0  0  0  0  0
  -11.0979   -2.4267    0.5343 C   0  0  0  0  0  0  0  0  0  0  0  0
  -11.2869   -1.7486   -0.6683 C   0  0  0  0  0  0  0  0  0  0  0  0
  -10.3101   -0.8660   -1.1524 C   0  0  0  0  0  0  0  0  0  0  0  0
   -9.1219   -0.6632   -0.4101 C   0  0  0  0  0  0  0  0  0  0  0  0
   -8.1229    0.2284   -0.8859 C   0  0  0  0  0  0  0  0  0  0  0  0
   -8.3307    0.9082   -2.1103 C   0  0  0  0  0  0  0  0  0  0  0  0
   -9.5120    0.6949   -2.8321 C   0  0  0  0  0  0  0  0  0  0  0  0
  -10.4899   -0.1808   -2.3591 C   0  0  0  0  0  0  0  0  0  0  0  0
   -7.3542    1.7866   -2.5875 C   0  0  0  0  0  0  0  0  0  0  0  0
   -6.1818    1.9983   -1.8659 C   0  0  0  0  0  0  0  0  0  0  0  0
   -3.5226    0.9092   -0.2488 C   0  0  0  0  0  0  0  0  0  0  0  0
   -2.3122    1.1673    0.4172 C   0  0  0  0  0  0  0  0  0  0  0  0
   -1.1403    0.4586    0.1061 C   0  0  0  0  0  0  0  0  0  0  0  0
    0.0706    0.7175    0.7698 C   0  0  0  0  0  0  0  0  0  0  0  0
    1.2431    0.0099    0.4562 C   0  0  0  0  0  0  0  0  0  0  0  0
    2.4541    0.2688    1.1186 C   0  0  0  0  0  0  0  0  0  0  0  0
    3.6270   -0.4387    0.8039 C   0  0  0  0  0  0  0  0  0  0  0  0
    6.3591   -2.0734    1.8717 C   0  0  0  0  0  0  0  0  0  0  0  0
    7.4958   -2.8311    1.6001 C   0  0  0  0  0  0  0  0  0  0  0  0
    8.3636   -2.4620    0.5686 C   0  0  0  0  0  0  0  0  0  0  0  0
    8.0826   -1.3093   -0.2037 C   0  0  0  0  0  0  0  0  0  0  0  0
    9.5077   -3.2217    0.2926 C   0  0  0  0  0  0  0  0  0  0  0  0
   10.3766   -2.8567   -0.7363 C   0  0  0  0  0  0  0  0  0  0  0  0
   11.4069    0.0662   -4.1229 H   0  0  0  0  0  0  0  0  0  0  0  0
   11.8789   -1.9355   -2.7676 H   0  0  0  0  0  0  0  0  0  0  0  0
    9.4077    1.4351   -3.6760 H   0  0  0  0  0  0  0  0  0  0  0  0
    7.3522    1.8564   -2.3542 H   0  0  0  0  0  0  0  0  0  0  0  0
    5.8290    1.2387   -0.5685 H   0  0  0  0  0  0  0  0  0  0  0  0
    5.7879    1.0321    2.9823 H   0  0  0  0  0  0  0  0  0  0  0  0
    3.7559    2.2812    3.5574 H   0  0  0  0  0  0  0  0  0  0  0  0
    1.3529    2.7331    3.2070 H   0  0  0  0  0  0  0  0  0  0  0  0
   -1.0317    3.1823    2.8565 H   0  0  0  0  0  0  0  0  0  0  0  0
   -3.4354    3.6372    2.4982 H   0  0  0  0  0  0  0  0  0  0  0  0
   -5.5320    3.1653    1.3161 H   0  0  0  0  0  0  0  0  0  0  0  0
   -5.8800   -0.1517    1.6689 H   0  0  0  0  0  0  0  0  0  0  0  0
   -7.5923   -1.6711    2.4743 H   0  0  0  0  0  0  0  0  0  0  0  0
   -9.7997   -2.7695    2.2042 H   0  0  0  0  0  0  0  0  0  0  0  0
  -11.8614   -3.1083    0.9000 H   0  0  0  0  0  0  0  0  0  0  0  0
  -12.2052   -1.9146   -1.2269 H   0  0  0  0  0  0  0  0  0  0  0  0
   -9.6838    1.2114   -3.7740 H   0  0  0  0  0  0  0  0  0  0  0  0
  -11.3955   -0.3224   -2.9445 H   0  0  0  0  0  0  0  0  0  0  0  0
   -7.4960    2.3177   -3.5260 H   0  0  0  0  0  0  0  0  0  0  0  0
   -5.4380    2.6902   -2.2578 H   0  0  0  0  0  0  0  0  0  0  0  0
   -3.5615    0.1431   -1.0221 H   0  0  0  0  0  0  0  0  0  0  0  0
   -1.1712   -0.3072   -0.6672 H   0  0  0  0  0  0  0  0  0  0  0  0
    1.2136   -0.7554   -0.3177 H   0  0  0  0  0  0  0  0  0  0  0  0
    3.6053   -1.2059    0.0311 H   0  0  0  0  0  0  0  0  0  0  0  0
    5.6983   -2.3834    2.6797 H   0  0  0  0  0  0  0  0  0  0  0  0
    7.6950   -3.7136    2.2039 H   0  0  0  0  0  0  0  0  0  0  0  0
    9.7351   -4.1098    0.8785 H   0  0  0  0  0  0  0  0  0  0  0  0
   11.2557   -3.4693   -0.9234 H   0  0  0  0  0  0  0  0  0  0  0  0
  1  2  4  0
  2  3  4  0
  3  4  4  0
  4  5  4  0
  5  6  4  0
  5  7  4  0
  7  8  4  0
  8  9  4  0
  9 10  4  0
 10 11  1  0
 11 12  4  0
 12 13  4  0
 13 14  4  0
 14 15  4  0
 15 16  4  0
 16 17  4  0
 17 18  4  0
 18 19  4  0
 19 20  4  0
 20 21  4  0
 21 22  1  0
 22 23  4  0
 23 24  4  0
 24 25  4  0
 25 26  4  0
 26 27  4  0
 27 28  4  0
 28 29  4  0
 29 30  4  0
 30 31  4  0
 31 32  4  0
 32 33  4  0
 33 34  4  0
 34 35  4  0
 33 36  4  0
 36 37  4  0
 21 38  4  0
 38 39  4  0
 39 40  4  0
 40 41  4  0
 41 42  4  0
 42 43  4  0
 43 44  4  0
 10 45  4  0
 45 46  4  0
 46 47  4  0
 47 48  4  0
 47 49  4  0
 49 50  4  0
  6  1  4  0
 48  9  4  0
 50  3  4  0
 48  4  4  0
 44 11  4  0
 43 14  4  0
 41 16  4  0
 39 18  4  0
 37 22  4  0
 32 23  4  0
 31 26  4  0
 35 30  4  0
  1 51  1  0
  2 52  1  0
  6 53  1  0
  7 54  1  0
  8 55  1  0
 12 56  1  0
 13 57  1  0
 15 58  1  0
 17 59  1  0
 19 60  1  0
 20 61  1  0
 24 62  1  0
 25 63  1  0
 27 64  1  0
 28 65  1  0
 29 66  1  0
 34 67  1  0
 35 68  1  0
 36 69  1  0
 37 70  1  0
 38 71  1  0
 40 72  1  0
 42 73  1  0
 44 74  1  0
 45 75  1  0
 46 76  1  0
 49 77  1  0
 50 78  1  0
M  END
