
     RDKit          3D

 78 89  0  0  0  0  0  0  0  0999 V2000
   -9.5254   -3.8648   -0.7813 C   0  0  0  0  0  0  0  0  0  0  0  0
  -10.3035   -3.0430    0.0313 C   0  0  0  0  0  0  0  0  0  0  0  0
   -9.8558   -1.7632    0.3903 C   0  0  0  0  0  0  0  0  0  0  0  0
   -8.6011   -1.3047   -0.0788 C   0  0  0  0  0  0  0  0  0  0  0  0
   -7.8171   -2.1412   -0.9013 C   0  0  0  0  0  0  0  0  0  0  0  0
   -8.2901   -3.4168   -1.2445 C   0  0  0  0  0  0  0  0  0  0  0  0
   -6.5781   -1.6805   -1.3597 C   0  0  0  0  0  0  0  0  0  0  0  0
   -6.0928   -0.4036   -1.0216 C   0  0  0  0  0  0  0  0  0  0  0  0
   -4.7764   -0.0047   -1.5445 C   0  0  0  0  0  0  0  0  0  0  0  0
   -4.6551    0.5578   -2.8205 C   0  0  0  0  0  0  0  0  0  0  0  0
   -3.4045    0.9356   -3.3154 C   0  0  0  0  0  0  0  0  0  0  0  0
   -2.2451    0.7585   -2.5453 C   0  0  0  0  0  0  0  0  0  0  0  0
   -0.9811    1.1354   -3.0278 C   0  0  0  0  0  0  0  0  0  0  0  0
    0.1801    0.9598   -2.2564 C   0  0  0  0  0  0  0  0  0  0  0  0
    1.4446    1.3379   -2.7389 C   0  0  0  0  0  0  0  0  0  0  0  0
    2.6052    1.1625   -1.9674 C   0  0  0  0  0  0  0  0  0  0  0  0
    3.8681    1.5402   -2.4487 C   0  0  0  0  0  0  0  0  0  0  0  0
    5.0133    1.3582   -1.6697 C   0  0  0  0  0  0  0  0  0  0  0  0
    4.9240    0.7930   -0.3924 C   0  0  0  0  0  0  0  0  0  0  0  0
    6.1292    0.6039    0.4305 C   0  0  0  0  0  0  0  0  0  0  0  0
    6.5360    1.6668    1.2581 C   0  0  0  0  0  0  0  0  0  0  0  0
    7.6691    1.5717    2.0733 C   0  0  0  0  0  0  0  0  0  0  0  0
    8.0651    2.6386    2.8939 C   0  0  0  0  0  0  0  0  0  0  0  0
    9.1957    2.5322    3.7014 C   0  0  0  0  0  0  0  0  0  0  0  0
    9.9445    1.3573    3.6987 C   0  0  0  0  0  0  0  0  0  0  0  0
    9.5720    0.2748    2.8884 C   0  0  0  0  0  0  0  0  0  0  0  0
    8.4240    0.3796    2.0664 C   0  0  0  0  0  0  0  0  0  0  0  0
    8.0332   -0.7052    1.2402 C   0  0  0  0  0  0  0  0  0  0  0  0
    8.8060   -1.8942    1.2481 C   0  0  0  0  0  0  0  0  0  0  0  0
    8.4310   -2.9713    0.4365 C   0  0  0  0  0  0  0  0  0  0  0  0
    7.3071   -2.8831   -0.3769 C   0  0  0  0  0  0  0  0  0  0  0  0
    6.5453   -1.7152   -0.3869 C   0  0  0  0  0  0  0  0  0  0  0  0
    6.8828   -0.6016    0.4152 C   0  0  0  0  0  0  0  0  0  0  0  0
    9.9384   -1.9804    2.0681 C   0  0  0  0  0  0  0  0  0  0  0  0
   10.3171   -0.9095    2.8783 C   0  0  0  0  0  0  0  0  0  0  0  0
    3.6606    0.4181    0.0912 C   0  0  0  0  0  0  0  0  0  0  0  0
    2.4994    0.5946   -0.6811 C   0  0  0  0  0  0  0  0  0  0  0  0
    1.2350    0.2171   -0.1995 C   0  0  0  0  0  0  0  0  0  0  0  0
    0.0741    0.3925   -0.9712 C   0  0  0  0  0  0  0  0  0  0  0  0
   -1.1902    0.0145   -0.4886 C   0  0  0  0  0  0  0  0  0  0  0  0
   -2.3512    0.1904   -1.2592 C   0  0  0  0  0  0  0  0  0  0  0  0
   -3.6160   -0.1865   -0.7756 C   0  0  0  0  0  0  0  0  0  0  0  0
   -6.8755    0.4483   -0.1952 C   0  0  0  0  0  0  0  0  0  0  0  0
   -6.4656    1.7458    0.1871 C   0  0  0  0  0  0  0  0  0  0  0  0
   -7.2577    2.5544    1.0013 C   0  0  0  0  0  0  0  0  0  0  0  0
   -8.4862    2.0891    1.4560 C   0  0  0  0  0  0  0  0  0  0  0  0
   -8.9368    0.8120    1.1016 C   0  0  0  0  0  0  0  0  0  0  0  0
   -8.1330   -0.0129    0.2743 C   0  0  0  0  0  0  0  0  0  0  0  0
  -10.1752    0.3417    1.5568 C   0  0  0  0  0  0  0  0  0  0  0  0
  -10.6294   -0.9300    1.2057 C   0  0  0  0  0  0  0  0  0  0  0  0
   -9.8815   -4.8548   -1.0538 H   0  0  0  0  0  0  0  0  0  0  0  0
  -11.2651   -3.4097    0.3834 H   0  0  0  0  0  0  0  0  0  0  0  0
   -7.6966   -4.0728   -1.8778 H   0  0  0  0  0  0  0  0  0  0  0  0
   -5.9675   -2.3235   -1.9929 H   0  0  0  0  0  0  0  0  0  0  0  0
   -5.5399    0.7090   -3.4359 H   0  0  0  0  0  0  0  0  0  0  0  0
   -3.3446    1.3720   -4.3100 H   0  0  0  0  0  0  0  0  0  0  0  0
   -0.9006    1.5736   -4.0210 H   0  0  0  0  0  0  0  0  0  0  0  0
    1.5268    1.7765   -3.7317 H   0  0  0  0  0  0  0  0  0  0  0  0
    3.9730    1.9809   -3.4376 H   0  0  0  0  0  0  0  0  0  0  0  0
    5.9812    1.6578   -2.0667 H   0  0  0  0  0  0  0  0  0  0  0  0
    5.9490    2.5848    1.2603 H   0  0  0  0  0  0  0  0  0  0  0  0
    7.4931    3.5639    2.9096 H   0  0  0  0  0  0  0  0  0  0  0  0
    9.4930    3.3655    4.3326 H   0  0  0  0  0  0  0  0  0  0  0  0
   10.8239    1.2926    4.3355 H   0  0  0  0  0  0  0  0  0  0  0  0
    9.0132   -3.8900    0.4315 H   0  0  0  0  0  0  0  0  0  0  0  0
    7.0207   -3.7224   -1.0052 H   0  0  0  0  0  0  0  0  0  0  0  0
    5.6732   -1.6838   -1.0376 H   0  0  0  0  0  0  0  0  0  0  0  0
   10.5400   -2.8867    2.0841 H   0  0  0  0  0  0  0  0  0  0  0  0
   11.2021   -1.0105    3.5025 H   0  0  0  0  0  0  0  0  0  0  0  0
    3.5876   -0.0207    1.0855 H   0  0  0  0  0  0  0  0  0  0  0  0
    1.1540   -0.2210    0.7940 H   0  0  0  0  0  0  0  0  0  0  0  0
   -1.2726   -0.4239    0.5046 H   0  0  0  0  0  0  0  0  0  0  0  0
   -3.7064   -0.6258    0.2169 H   0  0  0  0  0  0  0  0  0  0  0  0
   -5.5118    2.1465   -0.1512 H   0  0  0  0  0  0  0  0  0  0  0  0
   -6.9131    3.5472    1.2786 H   0  0  0  0  0  0  0  0  0  0  0  0
   -9.0910    2.7336    2.0899 H   0  0  0  0  0  0  0  0  0  0  0  0
  -10.8018    0.9641    2.1921 H   0  0  0  0  0  0  0  0  0  0  0  0
  -11.5960   -1.2632    1.5765 H   0  0  0  0  0  0  0  0  0  0  0  0
  1  2  4  0
  2  3  4  0
  3  4  4  0
  4  5  4  0
  5  6  4  0
  5  7  4  0
  7  8  4  0
  8  9  1  0
  9 10  4  0
 10 11  4  0
 11 12  4  0
 12 13  4  0
 13 14  4  0
 14 15  4  0
 15 16  4  0
 16 17  4  0
 17 18  4  0
 18 19  4  0
 19 20  1  0
 20 21  4  0
 21 22  4  0
 22 23  4  0
 23 24  4  0
 24 25  4  0
 25 26  4  0
 26 27  4  0
 27 28  4  0
 28 29  4  0
 29 30  4  0
 30 31  4  0
 31 32  4  0
 32 33  4  0
 29 34  4  0
 34 35  4  0
 19 36  4  0
 36 37  4  0
 37 38  4  0
 38 39  4  0
 39 40  4  0
 40 41  4  0
 41 42  4  0
  8 43  4  0
 43 44  4  0
 44 45  4  0
 45 46  4  0
 46 47  4  0
 47 48  4  0
 47 49  4  0
 49 50  4  0
  6  1  4  0
 42  9  4  0
 48 43  4  0
 50  3  4  0
 48  4  4  0
 41 12  4  0
 39 14  4  0
 37 16  4  0
 33 20  4  0
 27 22  4  0
 33 28  4  0
 35 26  4  0
  1 51  1  0
  2 52  1  0
  6 53  1  0
  7 54  1  0
 10 55  1  0
 11 56  1  0
 13 57  1  0
 15 58  1  0
 17 59  1  0
 18 60  1  0
 21 61  1  0
 23 62  1  0
 24 63  1  0
 25 64  1  0
 30 65  1  0
 31 66  1  0
 32 67  1  0
 34 68  1  0
 35 69  1  0
 36 70  1  0
 38 71  1  0
 40 72  1  0
 42 73  1  0
 44 74  1  0
 45 75  1  0
 46 76  1  0
 49 77  1  0
 50 78  1  0
M  END
