
     RDKit          3D

110125  0  0  0  0  0  0  0  0999 V2000
    7.2100    7.9973    3.2076 C   0  0  0  0  0  0  0  0  0  0  0  0
    5.9432    7.6701    3.6810 C   0  0  0  0  0  0  0  0  0  0  0  0
    5.4310    6.3887    3.4719 C   0  0  0  0  0  0  0  0  0  0  0  0
    6.1803    5.4181    2.7862 C   0  0  0  0  0  0  0  0  0  0  0  0
    5.6796    4.1239    2.5669 C   0  0  0  0  0  0  0  0  0  0  0  0
    6.4299    3.1533    1.8804 C   0  0  0  0  0  0  0  0  0  0  0  0
    5.9318    1.8566    1.6582 C   0  0  0  0  0  0  0  0  0  0  0  0
    6.6670    0.8591    0.9674 C   0  0  0  0  0  0  0  0  0  0  0  0
    7.9479    1.2148    0.4983 C   0  0  0  0  0  0  0  0  0  0  0  0
    8.4501    2.5100    0.7193 C   0  0  0  0  0  0  0  0  0  0  0  0
    7.7081    3.4841    1.4036 C   0  0  0  0  0  0  0  0  0  0  0  0
    8.2129    4.7781    1.6217 C   0  0  0  0  0  0  0  0  0  0  0  0
    7.4650    5.7499    2.3067 C   0  0  0  0  0  0  0  0  0  0  0  0
    7.9668    7.0438    2.5249 C   0  0  0  0  0  0  0  0  0  0  0  0
    8.7227    0.2734   -0.1905 C   0  0  0  0  0  0  0  0  0  0  0  0
    8.2659   -1.0275   -0.4356 C   0  0  0  0  0  0  0  0  0  0  0  0
    9.0814   -1.9376   -1.1324 C   0  0  0  0  0  0  0  0  0  0  0  0
    8.6629   -3.2492   -1.3996 C   0  0  0  0  0  0  0  0  0  0  0  0
    9.4791   -4.1575   -2.0953 C   0  0  0  0  0  0  0  0  0  0  0  0
    9.0426   -5.4584   -2.3508 C   0  0  0  0  0  0  0  0  0  0  0  0
    7.7863   -5.8665   -1.9147 C   0  0  0  0  0  0  0  0  0  0  0  0
    6.9661   -4.9739   -1.2228 C   0  0  0  0  0  0  0  0  0  0  0  0
    7.3929   -3.6614   -0.9582 C   0  0  0  0  0  0  0  0  0  0  0  0
    6.5816   -2.7478   -0.2622 C   0  0  0  0  0  0  0  0  0  0  0  0
    6.9892   -1.4181    0.0181 C   0  0  0  0  0  0  0  0  0  0  0  0
    6.1836   -0.4680    0.7263 C   0  0  0  0  0  0  0  0  0  0  0  0
    4.8427   -0.8614    1.2126 C   0  0  0  0  0  0  0  0  0  0  0  0
    4.6823   -1.4327    2.4812 C   0  0  0  0  0  0  0  0  0  0  0  0
    3.4164   -1.8063    2.9379 C   0  0  0  0  0  0  0  0  0  0  0  0
    2.2802   -1.6186    2.1362 C   0  0  0  0  0  0  0  0  0  0  0  0
    1.0010   -1.9911    2.5808 C   0  0  0  0  0  0  0  0  0  0  0  0
   -0.1372   -1.8034    1.7784 C   0  0  0  0  0  0  0  0  0  0  0  0
   -1.4173   -2.1745    2.2234 C   0  0  0  0  0  0  0  0  0  0  0  0
   -2.5549   -1.9853    1.4215 C   0  0  0  0  0  0  0  0  0  0  0  0
   -3.8335   -2.3520    1.8681 C   0  0  0  0  0  0  0  0  0  0  0  0
   -4.9560   -2.1529    1.0612 C   0  0  0  0  0  0  0  0  0  0  0  0
   -4.8267   -1.5858   -0.2128 C   0  0  0  0  0  0  0  0  0  0  0  0
   -6.0159   -1.3674   -1.0654 C   0  0  0  0  0  0  0  0  0  0  0  0
   -6.4722   -2.4122   -1.9328 C   0  0  0  0  0  0  0  0  0  0  0  0
   -5.8447   -3.6797   -2.0422 C   0  0  0  0  0  0  0  0  0  0  0  0
   -6.3158   -4.6899   -2.8996 C   0  0  0  0  0  0  0  0  0  0  0  0
   -5.6778   -5.9386   -2.9882 C   0  0  0  0  0  0  0  0  0  0  0  0
   -6.1611   -6.9292   -3.8445 C   0  0  0  0  0  0  0  0  0  0  0  0
   -7.2878   -6.6841   -4.6229 C   0  0  0  0  0  0  0  0  0  0  0  0
   -7.9312   -5.4481   -4.5454 C   0  0  0  0  0  0  0  0  0  0  0  0
   -7.4545   -4.4424   -3.6870 C   0  0  0  0  0  0  0  0  0  0  0  0
   -8.0855   -3.1936   -3.5934 C   0  0  0  0  0  0  0  0  0  0  0  0
   -7.6108   -2.1865   -2.7336 C   0  0  0  0  0  0  0  0  0  0  0  0
   -8.2713   -0.9532   -2.6713 C   0  0  0  0  0  0  0  0  0  0  0  0
   -7.8375    0.0794   -1.8308 C   0  0  0  0  0  0  0  0  0  0  0  0
   -8.5336    1.3014   -1.8029 C   0  0  0  0  0  0  0  0  0  0  0  0
   -8.1335    2.3615   -0.9757 C   0  0  0  0  0  0  0  0  0  0  0  0
   -8.8309    3.5818   -0.9506 C   0  0  0  0  0  0  0  0  0  0  0  0
   -8.4245    4.6399   -0.1210 C   0  0  0  0  0  0  0  0  0  0  0  0
   -9.1194    5.8604   -0.0948 C   0  0  0  0  0  0  0  0  0  0  0  0
   -8.7021    6.9023    0.7350 C   0  0  0  0  0  0  0  0  0  0  0  0
   -7.5854    6.7375    1.5485 C   0  0  0  0  0  0  0  0  0  0  0  0
   -6.8845    5.5306    1.5336 C   0  0  0  0  0  0  0  0  0  0  0  0
   -7.2924    4.4727    0.7042 C   0  0  0  0  0  0  0  0  0  0  0  0
   -6.5987    3.2517    0.6770 C   0  0  0  0  0  0  0  0  0  0  0  0
   -7.0073    2.1944   -0.1543 C   0  0  0  0  0  0  0  0  0  0  0  0
   -6.3149    0.9707   -0.1846 C   0  0  0  0  0  0  0  0  0  0  0  0
   -6.7039   -0.1116   -1.0150 C   0  0  0  0  0  0  0  0  0  0  0  0
   -3.5467   -1.2225   -0.6620 C   0  0  0  0  0  0  0  0  0  0  0  0
   -2.4090   -1.4129    0.1409 C   0  0  0  0  0  0  0  0  0  0  0  0
   -1.1291   -1.0430   -0.3036 C   0  0  0  0  0  0  0  0  0  0  0  0
    0.0084   -1.2300    0.4997 C   0  0  0  0  0  0  0  0  0  0  0  0
    1.2879   -0.8570    0.0549 C   0  0  0  0  0  0  0  0  0  0  0  0
    2.4259   -1.0441    0.8565 C   0  0  0  0  0  0  0  0  0  0  0  0
    3.7057   -0.6720    0.4103 C   0  0  0  0  0  0  0  0  0  0  0  0
    7.6109    8.9945    3.3695 H   0  0  0  0  0  0  0  0  0  0  0  0
    5.3527    8.4111    4.2135 H   0  0  0  0  0  0  0  0  0  0  0  0
    4.4390    6.1509    3.8495 H   0  0  0  0  0  0  0  0  0  0  0  0
    4.6883    3.8669    2.9363 H   0  0  0  0  0  0  0  0  0  0  0  0
    4.9380    1.6212    2.0372 H   0  0  0  0  0  0  0  0  0  0  0  0
    9.4418    2.7670    0.3499 H   0  0  0  0  0  0  0  0  0  0  0  0
    9.2043    5.0329    1.2519 H   0  0  0  0  0  0  0  0  0  0  0  0
    8.9550    7.3188    2.1630 H   0  0  0  0  0  0  0  0  0  0  0  0
    9.7111    0.5618   -0.5471 H   0  0  0  0  0  0  0  0  0  0  0  0
   10.0648   -1.6193   -1.4751 H   0  0  0  0  0  0  0  0  0  0  0  0
   10.4642   -3.8561   -2.4443 H   0  0  0  0  0  0  0  0  0  0  0  0
    9.6837   -6.1508   -2.8901 H   0  0  0  0  0  0  0  0  0  0  0  0
    7.4426   -6.8785   -2.1121 H   0  0  0  0  0  0  0  0  0  0  0  0
    5.9866   -5.3099   -0.8895 H   0  0  0  0  0  0  0  0  0  0  0  0
    5.6016   -3.0881    0.0698 H   0  0  0  0  0  0  0  0  0  0  0  0
    5.5485   -1.5901    3.1212 H   0  0  0  0  0  0  0  0  0  0  0  0
    3.3269   -2.2470    3.9285 H   0  0  0  0  0  0  0  0  0  0  0  0
    0.8902   -2.4351    3.5686 H   0  0  0  0  0  0  0  0  0  0  0  0
   -1.5315   -2.6168    3.2116 H   0  0  0  0  0  0  0  0  0  0  0  0
   -3.9683   -2.7955    2.8522 H   0  0  0  0  0  0  0  0  0  0  0  0
   -5.9378   -2.4422    1.4314 H   0  0  0  0  0  0  0  0  0  0  0  0
   -4.9604   -3.8923   -1.4429 H   0  0  0  0  0  0  0  0  0  0  0  0
   -4.7956   -6.1480   -2.3869 H   0  0  0  0  0  0  0  0  0  0  0  0
   -5.6570   -7.8903   -3.9022 H   0  0  0  0  0  0  0  0  0  0  0  0
   -7.6666   -7.4534   -5.2904 H   0  0  0  0  0  0  0  0  0  0  0  0
   -8.8105   -5.2742   -5.1615 H   0  0  0  0  0  0  0  0  0  0  0  0
   -8.9666   -3.0026   -4.2041 H   0  0  0  0  0  0  0  0  0  0  0  0
   -9.1495   -0.7923   -3.2959 H   0  0  0  0  0  0  0  0  0  0  0  0
   -9.4074    1.4316   -2.4397 H   0  0  0  0  0  0  0  0  0  0  0  0
   -9.7040    3.7103   -1.5876 H   0  0  0  0  0  0  0  0  0  0  0  0
   -9.9941    6.0081   -0.7241 H   0  0  0  0  0  0  0  0  0  0  0  0
   -9.2492    7.8414    0.7447 H   0  0  0  0  0  0  0  0  0  0  0  0
   -7.2578    7.5473    2.1950 H   0  0  0  0  0  0  0  0  0  0  0  0
   -6.0135    5.4207    2.1759 H   0  0  0  0  0  0  0  0  0  0  0  0
   -5.7249    3.1211    1.3131 H   0  0  0  0  0  0  0  0  0  0  0  0
   -5.4446    0.8624    0.4615 H   0  0  0  0  0  0  0  0  0  0  0  0
   -3.4430   -0.7805   -1.6522 H   0  0  0  0  0  0  0  0  0  0  0  0
   -1.0163   -0.6008   -1.2922 H   0  0  0  0  0  0  0  0  0  0  0  0
    1.4005   -0.4138   -0.9334 H   0  0  0  0  0  0  0  0  0  0  0  0
    3.8273   -0.2281   -0.5769 H   0  0  0  0  0  0  0  0  0  0  0  0
  1  2  4  0
  2  3  4  0
  3  4  4  0
  4  5  4  0
  5  6  4  0
  6  7  4  0
  7  8  4  0
  8  9  4  0
  9 10  4  0
 10 11  4  0
 11 12  4  0
 12 13  4  0
 13 14  4  0
  9 15  4  0
 15 16  4  0
 16 17  4  0
 17 18  4  0
 18 19  4  0
 19 20  4  0
 20 21  4  0
 21 22  4  0
 22 23  4  0
 23 24  4  0
 24 25  4  0
 25 26  4  0
 26 27  1  0
 27 28  4  0
 28 29  4  0
 29 30  4  0
 30 31  4  0
 31 32  4  0
 32 33  4  0
 33 34  4  0
 34 35  4  0
 35 36  4  0
 36 37  4  0
 37 38  1  0
 38 39  4  0
 39 40  4  0
 40 41  4  0
 41 42  4  0
 42 43  4  0
 43 44  4  0
 44 45  4  0
 45 46  4  0
 46 47  4  0
 47 48  4  0
 48 49  4  0
 49 50  4  0
 50 51  4  0
 51 52  4  0
 52 53  4  0
 53 54  4  0
 54 55  4  0
 55 56  4  0
 56 57  4  0
 57 58  4  0
 58 59  4  0
 59 60  4  0
 60 61  4  0
 61 62  4  0
 62 63  4  0
 37 64  4  0
 64 65  4  0
 65 66  4  0
 66 67  4  0
 67 68  4  0
 68 69  4  0
 69 70  4  0
 14  1  4  0
 25 16  4  0
 70 27  4  0
 13  4  4  0
 23 18  4  0
 69 30  4  0
 11  6  4  0
 67 32  4  0
 26  8  4  0
 65 34  4  0
 63 38  4  0
 48 39  4  0
 63 50  4  0
 46 41  4  0
 61 52  4  0
 59 54  4  0
  1 71  1  0
  2 72  1  0
  3 73  1  0
  5 74  1  0
  7 75  1  0
 10 76  1  0
 12 77  1  0
 14 78  1  0
 15 79  1  0
 17 80  1  0
 19 81  1  0
 20 82  1  0
 21 83  1  0
 22 84  1  0
 24 85  1  0
 28 86  1  0
 29 87  1  0
 31 88  1  0
 33 89  1  0
 35 90  1  0
 36 91  1  0
 40 92  1  0
 42 93  1  0
 43 94  1  0
 44 95  1  0
 45 96  1  0
 47 97  1  0
 49 98  1  0
 51 99  1  0
 53100  1  0
 55101  1  0
 56102  1  0
 57103  1  0
 58104  1  0
 60105  1  0
 62106  1  0
 64107  1  0
 66108  1  0
 68109  1  0
 70110  1  0
M  END
