
     RDKit          3D

110125  0  0  0  0  0  0  0  0999 V2000
   -8.6875    6.7902    5.7902 C   0  0  0  0  0  0  0  0  0  0  0  0
   -7.3628    7.1334    5.5387 C   0  0  0  0  0  0  0  0  0  0  0  0
   -6.6481    6.4684    4.5412 C   0  0  0  0  0  0  0  0  0  0  0  0
   -7.2502    5.4509    3.7825 C   0  0  0  0  0  0  0  0  0  0  0  0
   -6.5447    4.7721    2.7752 C   0  0  0  0  0  0  0  0  0  0  0  0
   -7.1477    3.7543    2.0166 C   0  0  0  0  0  0  0  0  0  0  0  0
   -6.4422    3.0749    1.0092 C   0  0  0  0  0  0  0  0  0  0  0  0
   -7.0445    2.0570    0.2505 C   0  0  0  0  0  0  0  0  0  0  0  0
   -6.3393    1.3766   -0.7563 C   0  0  0  0  0  0  0  0  0  0  0  0
   -6.9425    0.3588   -1.5147 C   0  0  0  0  0  0  0  0  0  0  0  0
   -6.2378   -0.3229   -2.5219 C   0  0  0  0  0  0  0  0  0  0  0  0
   -6.8256   -1.3512   -3.2972 C   0  0  0  0  0  0  0  0  0  0  0  0
   -8.1742   -1.6855   -3.0285 C   0  0  0  0  0  0  0  0  0  0  0  0
   -8.8789   -1.0037   -2.0216 C   0  0  0  0  0  0  0  0  0  0  0  0
   -8.2805    0.0134   -1.2615 C   0  0  0  0  0  0  0  0  0  0  0  0
   -8.9871    0.6929   -0.2546 C   0  0  0  0  0  0  0  0  0  0  0  0
   -8.3851    1.7104    0.5048 C   0  0  0  0  0  0  0  0  0  0  0  0
   -9.0908    2.3895    1.5121 C   0  0  0  0  0  0  0  0  0  0  0  0
   -8.4887    3.4070    2.2713 C   0  0  0  0  0  0  0  0  0  0  0  0
   -9.1953    4.0854    3.2787 C   0  0  0  0  0  0  0  0  0  0  0  0
   -8.5936    5.1029    4.0376 C   0  0  0  0  0  0  0  0  0  0  0  0
   -9.2995    5.7814    5.0448 C   0  0  0  0  0  0  0  0  0  0  0  0
   -8.8042   -2.6979   -3.7682 C   0  0  0  0  0  0  0  0  0  0  0  0
   -8.1219   -3.3845   -4.7683 C   0  0  0  0  0  0  0  0  0  0  0  0
   -6.7965   -3.0661   -5.0426 C   0  0  0  0  0  0  0  0  0  0  0  0
   -6.1316   -2.0572   -4.3227 C   0  0  0  0  0  0  0  0  0  0  0  0
   -4.7287   -1.7728   -4.6606 C   0  0  0  0  0  0  0  0  0  0  0  0
   -4.4072   -0.8312   -5.6450 C   0  0  0  0  0  0  0  0  0  0  0  0
   -3.0737   -0.5561   -5.9571 C   0  0  0  0  0  0  0  0  0  0  0  0
   -2.0303   -1.2186   -5.2927 C   0  0  0  0  0  0  0  0  0  0  0  0
   -0.6846   -0.9511   -5.5920 C   0  0  0  0  0  0  0  0  0  0  0  0
    0.3598   -1.6149   -4.9264 C   0  0  0  0  0  0  0  0  0  0  0  0
    1.7061   -1.3465   -5.2254 C   0  0  0  0  0  0  0  0  0  0  0  0
    2.7502   -2.0119   -4.5624 C   0  0  0  0  0  0  0  0  0  0  0  0
    4.0945   -1.7448   -4.8626 C   0  0  0  0  0  0  0  0  0  0  0  0
    5.1220   -2.4162   -4.1957 C   0  0  0  0  0  0  0  0  0  0  0  0
    4.8307   -3.3680   -3.2114 C   0  0  0  0  0  0  0  0  0  0  0  0
    5.9121   -4.0772   -2.5098 C   0  0  0  0  0  0  0  0  0  0  0  0
    6.3393   -5.3129   -3.0288 C   0  0  0  0  0  0  0  0  0  0  0  0
    7.3597   -6.0319   -2.4163 C   0  0  0  0  0  0  0  0  0  0  0  0
    7.9709   -5.5256   -1.2732 C   0  0  0  0  0  0  0  0  0  0  0  0
    7.5720   -4.2970   -0.7252 C   0  0  0  0  0  0  0  0  0  0  0  0
    8.2017   -3.8022    0.4298 C   0  0  0  0  0  0  0  0  0  0  0  0
    7.8288   -2.5782    1.0066 C   0  0  0  0  0  0  0  0  0  0  0  0
    8.4609   -2.0852    2.1611 C   0  0  0  0  0  0  0  0  0  0  0  0
    8.0846   -0.8597    2.7364 C   0  0  0  0  0  0  0  0  0  0  0  0
    8.7156   -0.3655    3.8904 C   0  0  0  0  0  0  0  0  0  0  0  0
    8.3387    0.8602    4.4650 C   0  0  0  0  0  0  0  0  0  0  0  0
    8.9705    1.3541    5.6190 C   0  0  0  0  0  0  0  0  0  0  0  0
    8.5932    2.5793    6.1932 C   0  0  0  0  0  0  0  0  0  0  0  0
    9.2242    3.0739    7.3467 C   0  0  0  0  0  0  0  0  0  0  0  0
    8.8374    4.2931    7.9052 C   0  0  0  0  0  0  0  0  0  0  0  0
    7.8157    5.0331    7.3183 C   0  0  0  0  0  0  0  0  0  0  0  0
    7.1792    4.5550    6.1719 C   0  0  0  0  0  0  0  0  0  0  0  0
    7.5572    3.3299    5.5981 C   0  0  0  0  0  0  0  0  0  0  0  0
    6.9264    2.8354    4.4446 C   0  0  0  0  0  0  0  0  0  0  0  0
    7.3047    1.6097    3.8710 C   0  0  0  0  0  0  0  0  0  0  0  0
    6.6737    1.1152    2.7172 C   0  0  0  0  0  0  0  0  0  0  0  0
    7.0514   -0.1101    2.1428 C   0  0  0  0  0  0  0  0  0  0  0  0
    6.4208   -0.6043    0.9888 C   0  0  0  0  0  0  0  0  0  0  0  0
    6.7980   -1.8298    0.4139 C   0  0  0  0  0  0  0  0  0  0  0  0
    6.1678   -2.3248   -0.7414 C   0  0  0  0  0  0  0  0  0  0  0  0
    6.5333   -3.5555   -1.3376 C   0  0  0  0  0  0  0  0  0  0  0  0
    3.4860   -3.6367   -2.9117 C   0  0  0  0  0  0  0  0  0  0  0  0
    2.4411   -2.9697   -3.5748 C   0  0  0  0  0  0  0  0  0  0  0  0
    1.0949   -3.2365   -3.2754 C   0  0  0  0  0  0  0  0  0  0  0  0
    0.0506   -2.5706   -3.9388 C   0  0  0  0  0  0  0  0  0  0  0  0
   -1.2956   -2.8377   -3.6383 C   0  0  0  0  0  0  0  0  0  0  0  0
   -2.3397   -2.1735   -4.3023 C   0  0  0  0  0  0  0  0  0  0  0  0
   -3.6857   -2.4396   -3.9993 C   0  0  0  0  0  0  0  0  0  0  0  0
   -9.2459    7.3068    6.5665 H   0  0  0  0  0  0  0  0  0  0  0  0
   -6.8842    7.9187    6.1180 H   0  0  0  0  0  0  0  0  0  0  0  0
   -5.6136    6.7508    4.3593 H   0  0  0  0  0  0  0  0  0  0  0  0
   -5.5084    5.0406    2.5785 H   0  0  0  0  0  0  0  0  0  0  0  0
   -5.4058    3.3434    0.8120 H   0  0  0  0  0  0  0  0  0  0  0  0
   -5.3021    1.6429   -0.9540 H   0  0  0  0  0  0  0  0  0  0  0  0
   -5.2013   -0.0427   -2.7053 H   0  0  0  0  0  0  0  0  0  0  0  0
   -9.9160   -1.2705   -1.8245 H   0  0  0  0  0  0  0  0  0  0  0  0
  -10.0238    0.4250   -0.0588 H   0  0  0  0  0  0  0  0  0  0  0  0
  -10.1273    2.1215    1.7091 H   0  0  0  0  0  0  0  0  0  0  0  0
  -10.2316    3.8173    3.4758 H   0  0  0  0  0  0  0  0  0  0  0  0
  -10.3358    5.5273    5.2561 H   0  0  0  0  0  0  0  0  0  0  0  0
   -9.8408   -2.9617   -3.5682 H   0  0  0  0  0  0  0  0  0  0  0  0
   -8.6223   -4.1671   -5.3324 H   0  0  0  0  0  0  0  0  0  0  0  0
   -6.2714   -3.6102   -5.8259 H   0  0  0  0  0  0  0  0  0  0  0  0
   -5.1986   -0.3014   -6.1716 H   0  0  0  0  0  0  0  0  0  0  0  0
   -2.8576    0.1833   -6.7251 H   0  0  0  0  0  0  0  0  0  0  0  0
   -0.4457   -0.2140   -6.3564 H   0  0  0  0  0  0  0  0  0  0  0  0
    1.9453   -0.6080   -5.9885 H   0  0  0  0  0  0  0  0  0  0  0  0
    4.3549   -1.0098   -5.6210 H   0  0  0  0  0  0  0  0  0  0  0  0
    6.1570   -2.1909   -4.4461 H   0  0  0  0  0  0  0  0  0  0  0  0
    5.8699   -5.7174   -3.9240 H   0  0  0  0  0  0  0  0  0  0  0  0
    7.6789   -6.9848   -2.8298 H   0  0  0  0  0  0  0  0  0  0  0  0
    8.7682   -6.1027   -0.8090 H   0  0  0  0  0  0  0  0  0  0  0  0
    8.9999   -4.3819    0.8907 H   0  0  0  0  0  0  0  0  0  0  0  0
    9.2595   -2.6656    2.6198 H   0  0  0  0  0  0  0  0  0  0  0  0
    9.5144   -0.9452    4.3495 H   0  0  0  0  0  0  0  0  0  0  0  0
    9.7695    0.7750    6.0781 H   0  0  0  0  0  0  0  0  0  0  0  0
   10.0248    2.5102    7.8204 H   0  0  0  0  0  0  0  0  0  0  0  0
    9.3344    4.6635    8.7979 H   0  0  0  0  0  0  0  0  0  0  0  0
    7.5128    5.9826    7.7517 H   0  0  0  0  0  0  0  0  0  0  0  0
    6.3825    5.1475    5.7275 H   0  0  0  0  0  0  0  0  0  0  0  0
    6.1271    3.4144    3.9857 H   0  0  0  0  0  0  0  0  0  0  0  0
    5.8739    1.6936    2.2579 H   0  0  0  0  0  0  0  0  0  0  0  0
    5.6216   -0.0253    0.5291 H   0  0  0  0  0  0  0  0  0  0  0  0
    5.3693   -1.7326   -1.1866 H   0  0  0  0  0  0  0  0  0  0  0  0
    3.2555   -4.3768   -2.1466 H   0  0  0  0  0  0  0  0  0  0  0  0
    0.8552   -3.9762   -2.5133 H   0  0  0  0  0  0  0  0  0  0  0  0
   -1.5354   -3.5755   -2.8744 H   0  0  0  0  0  0  0  0  0  0  0  0
   -3.9338   -3.1727   -3.2328 H   0  0  0  0  0  0  0  0  0  0  0  0
  1  2  4  0
  2  3  4  0
  3  4  4  0
  4  5  4  0
  5  6  4  0
  6  7  4  0
  7  8  4  0
  8  9  4  0
  9 10  4  0
 10 11  4  0
 11 12  4  0
 12 13  4  0
 13 14  4  0
 14 15  4  0
 15 16  4  0
 16 17  4  0
 17 18  4  0
 18 19  4  0
 19 20  4  0
 20 21  4  0
 21 22  4  0
 13 23  4  0
 23 24  4  0
 24 25  4  0
 25 26  4  0
 26 27  1  0
 27 28  4  0
 28 29  4  0
 29 30  4  0
 30 31  4  0
 31 32  4  0
 32 33  4  0
 33 34  4  0
 34 35  4  0
 35 36  4  0
 36 37  4  0
 37 38  1  0
 38 39  4  0
 39 40  4  0
 40 41  4  0
 41 42  4  0
 42 43  4  0
 43 44  4  0
 44 45  4  0
 45 46  4  0
 46 47  4  0
 47 48  4  0
 48 49  4  0
 49 50  4  0
 50 51  4  0
 51 52  4  0
 52 53  4  0
 53 54  4  0
 54 55  4  0
 55 56  4  0
 56 57  4  0
 57 58  4  0
 58 59  4  0
 59 60  4  0
 60 61  4  0
 61 62  4  0
 62 63  4  0
 37 64  4  0
 64 65  4  0
 65 66  4  0
 66 67  4  0
 67 68  4  0
 68 69  4  0
 69 70  4  0
 22  1  4  0
 70 27  4  0
 21  4  4  0
 69 30  4  0
 19  6  4  0
 67 32  4  0
 17  8  4  0
 65 34  4  0
 15 10  4  0
 63 38  4  0
 26 12  4  0
 63 42  4  0
 61 44  4  0
 59 46  4  0
 57 48  4  0
 55 50  4  0
  1 71  1  0
  2 72  1  0
  3 73  1  0
  5 74  1  0
  7 75  1  0
  9 76  1  0
 11 77  1  0
 14 78  1  0
 16 79  1  0
 18 80  1  0
 20 81  1  0
 22 82  1  0
 23 83  1  0
 24 84  1  0
 25 85  1  0
 28 86  1  0
 29 87  1  0
 31 88  1  0
 33 89  1  0
 35 90  1  0
 36 91  1  0
 39 92  1  0
 40 93  1  0
 41 94  1  0
 43 95  1  0
 45 96  1  0
 47 97  1  0
 49 98  1  0
 51 99  1  0
 52100  1  0
 53101  1  0
 54102  1  0
 56103  1  0
 58104  1  0
 60105  1  0
 62106  1  0
 64107  1  0
 66108  1  0
 68109  1  0
 70110  1  0
M  END
