
     RDKit          3D

 86 97  0  0  0  0  0  0  0  0999 V2000
    9.1895    4.6617   -0.0075 C   0  0  0  0  0  0  0  0  0  0  0  0
    7.9905    4.8067   -0.6981 C   0  0  0  0  0  0  0  0  0  0  0  0
    7.1333    3.7144   -0.8413 C   0  0  0  0  0  0  0  0  0  0  0  0
    7.4649    2.4625   -0.2957 C   0  0  0  0  0  0  0  0  0  0  0  0
    6.6151    1.3500   -0.4303 C   0  0  0  0  0  0  0  0  0  0  0  0
    6.9273    0.0759    0.1098 C   0  0  0  0  0  0  0  0  0  0  0  0
    8.1474   -0.0457    0.8075 C   0  0  0  0  0  0  0  0  0  0  0  0
    9.0006    1.0643    0.9450 C   0  0  0  0  0  0  0  0  0  0  0  0
    8.6769    2.3165    0.4027 C   0  0  0  0  0  0  0  0  0  0  0  0
    9.5313    3.4242    0.5401 C   0  0  0  0  0  0  0  0  0  0  0  0
    8.5108   -1.2780    1.3651 C   0  0  0  0  0  0  0  0  0  0  0  0
    7.6960   -2.4111    1.2539 C   0  0  0  0  0  0  0  0  0  0  0  0
    8.1029   -3.6278    1.8299 C   0  0  0  0  0  0  0  0  0  0  0  0
    7.3121   -4.7707    1.7336 C   0  0  0  0  0  0  0  0  0  0  0  0
    6.1022   -4.7112    1.0587 C   0  0  0  0  0  0  0  0  0  0  0  0
    5.6876   -3.5082    0.4823 C   0  0  0  0  0  0  0  0  0  0  0  0
    6.4677   -2.3265    0.5615 C   0  0  0  0  0  0  0  0  0  0  0  0
    6.0810   -1.0737   -0.0153 C   0  0  0  0  0  0  0  0  0  0  0  0
    4.7998   -0.9686   -0.7479 C   0  0  0  0  0  0  0  0  0  0  0  0
    4.7452   -1.2016   -2.1278 C   0  0  0  0  0  0  0  0  0  0  0  0
    3.5342   -1.1075   -2.8175 C   0  0  0  0  0  0  0  0  0  0  0  0
    2.3480   -0.7793   -2.1433 C   0  0  0  0  0  0  0  0  0  0  0  0
    1.1219   -0.6844   -2.8223 C   0  0  0  0  0  0  0  0  0  0  0  0
   -0.0668   -0.3576   -2.1474 C   0  0  0  0  0  0  0  0  0  0  0  0
   -1.2943   -0.2646   -2.8258 C   0  0  0  0  0  0  0  0  0  0  0  0
   -2.4822    0.0607   -2.1500 C   0  0  0  0  0  0  0  0  0  0  0  0
   -3.7083    0.1518   -2.8267 C   0  0  0  0  0  0  0  0  0  0  0  0
   -4.8807    0.4763   -2.1401 C   0  0  0  0  0  0  0  0  0  0  0  0
   -4.8554    0.7167   -0.7606 C   0  0  0  0  0  0  0  0  0  0  0  0
   -6.0961    1.0582   -0.0309 C   0  0  0  0  0  0  0  0  0  0  0  0
   -6.4784    2.4301    0.1173 C   0  0  0  0  0  0  0  0  0  0  0  0
   -5.7310    3.5188   -0.3989 C   0  0  0  0  0  0  0  0  0  0  0  0
   -6.1389    4.8439   -0.2305 C   0  0  0  0  0  0  0  0  0  0  0  0
   -7.3088    5.1222    0.4600 C   0  0  0  0  0  0  0  0  0  0  0  0
   -8.0673    4.0755    0.9791 C   0  0  0  0  0  0  0  0  0  0  0  0
   -7.6668    2.7377    0.8162 C   0  0  0  0  0  0  0  0  0  0  0  0
   -8.4478    1.7051    1.3485 C   0  0  0  0  0  0  0  0  0  0  0  0
   -8.0877    0.3587    1.2131 C   0  0  0  0  0  0  0  0  0  0  0  0
   -8.9048   -0.6439    1.7658 C   0  0  0  0  0  0  0  0  0  0  0  0
   -8.5809   -2.0039    1.6557 C   0  0  0  0  0  0  0  0  0  0  0  0
   -9.3984   -3.0046    2.2080 C   0  0  0  0  0  0  0  0  0  0  0  0
   -9.0566   -4.3522    2.0873 C   0  0  0  0  0  0  0  0  0  0  0  0
   -7.8944   -4.7151    1.4139 C   0  0  0  0  0  0  0  0  0  0  0  0
   -7.0742   -3.7309    0.8607 C   0  0  0  0  0  0  0  0  0  0  0  0
   -7.4066   -2.3706    0.9742 C   0  0  0  0  0  0  0  0  0  0  0  0
   -6.5938   -1.3650    0.4223 C   0  0  0  0  0  0  0  0  0  0  0  0
   -6.9064    0.0148    0.5230 C   0  0  0  0  0  0  0  0  0  0  0  0
   -3.6288    0.6255   -0.0830 C   0  0  0  0  0  0  0  0  0  0  0  0
   -2.4416    0.3004   -0.7610 C   0  0  0  0  0  0  0  0  0  0  0  0
   -1.2147    0.2084   -0.0839 C   0  0  0  0  0  0  0  0  0  0  0  0
   -0.0270   -0.1185   -0.7597 C   0  0  0  0  0  0  0  0  0  0  0  0
    1.1995   -0.2129   -0.0803 C   0  0  0  0  0  0  0  0  0  0  0  0
    2.3875   -0.5407   -0.7541 C   0  0  0  0  0  0  0  0  0  0  0  0
    3.6134   -0.6374   -0.0732 C   0  0  0  0  0  0  0  0  0  0  0  0
    9.8590    5.5101    0.1060 H   0  0  0  0  0  0  0  0  0  0  0  0
    7.7202    5.7686   -1.1255 H   0  0  0  0  0  0  0  0  0  0  0  0
    6.1997    3.8464   -1.3841 H   0  0  0  0  0  0  0  0  0  0  0  0
    5.6814    1.4859   -0.9745 H   0  0  0  0  0  0  0  0  0  0  0  0
    9.9389    0.9523    1.4862 H   0  0  0  0  0  0  0  0  0  0  0  0
   10.4726    3.3295    1.0770 H   0  0  0  0  0  0  0  0  0  0  0  0
    9.4557   -1.3582    1.9015 H   0  0  0  0  0  0  0  0  0  0  0  0
    9.0493   -3.6945    2.3630 H   0  0  0  0  0  0  0  0  0  0  0  0
    7.6419   -5.7027    2.1843 H   0  0  0  0  0  0  0  0  0  0  0  0
    5.4769   -5.5961    0.9764 H   0  0  0  0  0  0  0  0  0  0  0  0
    4.7319   -3.5044   -0.0390 H   0  0  0  0  0  0  0  0  0  0  0  0
    5.6515   -1.4599   -2.6724 H   0  0  0  0  0  0  0  0  0  0  0  0
    3.5262   -1.2952   -3.8890 H   0  0  0  0  0  0  0  0  0  0  0  0
    1.0932   -0.8684   -3.8947 H   0  0  0  0  0  0  0  0  0  0  0  0
   -1.3266   -0.4500   -3.8980 H   0  0  0  0  0  0  0  0  0  0  0  0
   -3.7629   -0.0306   -3.8976 H   0  0  0  0  0  0  0  0  0  0  0  0
   -5.8196    0.5408   -2.6867 H   0  0  0  0  0  0  0  0  0  0  0  0
   -4.8069    3.3435   -0.9468 H   0  0  0  0  0  0  0  0  0  0  0  0
   -5.5390    5.6521   -0.6401 H   0  0  0  0  0  0  0  0  0  0  0  0
   -7.6325    6.1502    0.5959 H   0  0  0  0  0  0  0  0  0  0  0  0
   -8.9823    4.3143    1.5176 H   0  0  0  0  0  0  0  0  0  0  0  0
   -9.3621    1.9573    1.8844 H   0  0  0  0  0  0  0  0  0  0  0  0
   -9.8139   -0.3607    2.2941 H   0  0  0  0  0  0  0  0  0  0  0  0
  -10.3107   -2.7393    2.7375 H   0  0  0  0  0  0  0  0  0  0  0  0
   -9.6979   -5.1162    2.5186 H   0  0  0  0  0  0  0  0  0  0  0  0
   -7.6240   -5.7630    1.3168 H   0  0  0  0  0  0  0  0  0  0  0  0
   -6.1696   -4.0332    0.3373 H   0  0  0  0  0  0  0  0  0  0  0  0
   -5.6896   -1.6720   -0.1015 H   0  0  0  0  0  0  0  0  0  0  0  0
   -3.6063    0.8117    0.9899 H   0  0  0  0  0  0  0  0  0  0  0  0
   -1.1841    0.3941    0.9886 H   0  0  0  0  0  0  0  0  0  0  0  0
    1.2296   -0.0288    0.9924 H   0  0  0  0  0  0  0  0  0  0  0  0
    3.6523   -0.4558    1.0001 H   0  0  0  0  0  0  0  0  0  0  0  0
  1  2  4  0
  2  3  4  0
  3  4  4  0
  4  5  4  0
  5  6  4  0
  6  7  4  0
  7  8  4  0
  8  9  4  0
  9 10  4  0
  7 11  4  0
 11 12  4  0
 12 13  4  0
 13 14  4  0
 14 15  4  0
 15 16  4  0
 16 17  4  0
 17 18  4  0
 18 19  1  0
 19 20  4  0
 20 21  4  0
 21 22  4  0
 22 23  4  0
 23 24  4  0
 24 25  4  0
 25 26  4  0
 26 27  4  0
 27 28  4  0
 28 29  4  0
 29 30  1  0
 30 31  4  0
 31 32  4  0
 32 33  4  0
 33 34  4  0
 34 35  4  0
 35 36  4  0
 36 37  4  0
 37 38  4  0
 38 39  4  0
 39 40  4  0
 40 41  4  0
 41 42  4  0
 42 43  4  0
 43 44  4  0
 44 45  4  0
 45 46  4  0
 46 47  4  0
 29 48  4  0
 48 49  4  0
 49 50  4  0
 50 51  4  0
 51 52  4  0
 52 53  4  0
 53 54  4  0
 10  1  4  0
 17 12  4  0
 54 19  4  0
  9  4  4  0
 53 22  4  0
 18  6  4  0
 51 24  4  0
 49 26  4  0
 47 30  4  0
 36 31  4  0
 47 38  4  0
 45 40  4  0
  1 55  1  0
  2 56  1  0
  3 57  1  0
  5 58  1  0
  8 59  1  0
 10 60  1  0
 11 61  1  0
 13 62  1  0
 14 63  1  0
 15 64  1  0
 16 65  1  0
 20 66  1  0
 21 67  1  0
 23 68  1  0
 25 69  1  0
 27 70  1  0
 28 71  1  0
 32 72  1  0
 33 73  1  0
 34 74  1  0
 35 75  1  0
 37 76  1  0
 39 77  1  0
 41 78  1  0
 42 79  1  0
 43 80  1  0
 44 81  1  0
 46 82  1  0
 48 83  1  0
 50 84  1  0
 52 85  1  0
 54 86  1  0
M  END
