
     RDKit          3D

 86 97  0  0  0  0  0  0  0  0999 V2000
    8.5053   -5.8621   -1.7959 C   0  0  0  0  0  0  0  0  0  0  0  0
    8.9860   -4.9571   -0.8481 C   0  0  0  0  0  0  0  0  0  0  0  0
    8.3127   -3.7491   -0.6015 C   0  0  0  0  0  0  0  0  0  0  0  0
    8.7818   -2.8276    0.3493 C   0  0  0  0  0  0  0  0  0  0  0  0
    8.1060   -1.6197    0.5948 C   0  0  0  0  0  0  0  0  0  0  0  0
    8.5709   -0.6976    1.5454 C   0  0  0  0  0  0  0  0  0  0  0  0
    7.8979    0.5111    1.7933 C   0  0  0  0  0  0  0  0  0  0  0  0
    8.3919    1.4080    2.7526 C   0  0  0  0  0  0  0  0  0  0  0  0
    7.7397    2.6096    3.0124 C   0  0  0  0  0  0  0  0  0  0  0  0
    6.5820    2.9309    2.3126 C   0  0  0  0  0  0  0  0  0  0  0  0
    6.0564    2.0580    1.3425 C   0  0  0  0  0  0  0  0  0  0  0  0
    4.8303    2.4650    0.6384 C   0  0  0  0  0  0  0  0  0  0  0  0
    4.9006    3.1677   -0.5701 C   0  0  0  0  0  0  0  0  0  0  0  0
    3.7357    3.5598   -1.2341 C   0  0  0  0  0  0  0  0  0  0  0  0
    2.4720    3.2609   -0.7026 C   0  0  0  0  0  0  0  0  0  0  0  0
    1.2919    3.6510   -1.3568 C   0  0  0  0  0  0  0  0  0  0  0  0
    0.0262    3.3543   -0.8235 C   0  0  0  0  0  0  0  0  0  0  0  0
   -1.1543    3.7458   -1.4773 C   0  0  0  0  0  0  0  0  0  0  0  0
   -2.4196    3.4505   -0.9439 C   0  0  0  0  0  0  0  0  0  0  0  0
   -3.5987    3.8404   -1.5970 C   0  0  0  0  0  0  0  0  0  0  0  0
   -4.8499    3.5356   -1.0551 C   0  0  0  0  0  0  0  0  0  0  0  0
   -4.9526    2.8333    0.1513 C   0  0  0  0  0  0  0  0  0  0  0  0
   -6.2696    2.5052    0.7204 C   0  0  0  0  0  0  0  0  0  0  0  0
   -6.8719    1.2224    0.5621 C   0  0  0  0  0  0  0  0  0  0  0  0
   -6.2750    0.1616   -0.1612 C   0  0  0  0  0  0  0  0  0  0  0  0
   -6.8864   -1.0969   -0.2984 C   0  0  0  0  0  0  0  0  0  0  0  0
   -6.2726   -2.1376   -1.0167 C   0  0  0  0  0  0  0  0  0  0  0  0
   -6.8841   -3.3951   -1.1514 C   0  0  0  0  0  0  0  0  0  0  0  0
   -6.2712   -4.4367   -1.8679 C   0  0  0  0  0  0  0  0  0  0  0  0
   -6.8926   -5.6805   -1.9919 C   0  0  0  0  0  0  0  0  0  0  0  0
   -8.1336   -5.8985   -1.4016 C   0  0  0  0  0  0  0  0  0  0  0  0
   -8.7551   -4.8735   -0.6868 C   0  0  0  0  0  0  0  0  0  0  0  0
   -8.1424   -3.6165   -0.5531 C   0  0  0  0  0  0  0  0  0  0  0  0
   -8.7543   -2.5746    0.1633 C   0  0  0  0  0  0  0  0  0  0  0  0
   -8.1397   -1.3178    0.2975 C   0  0  0  0  0  0  0  0  0  0  0  0
   -8.7486   -0.2750    1.0129 C   0  0  0  0  0  0  0  0  0  0  0  0
   -8.1363    0.9824    1.1513 C   0  0  0  0  0  0  0  0  0  0  0  0
   -8.7767    2.0015    1.8726 C   0  0  0  0  0  0  0  0  0  0  0  0
   -8.1870    3.2533    2.0206 C   0  0  0  0  0  0  0  0  0  0  0  0
   -6.9440    3.5019    1.4492 C   0  0  0  0  0  0  0  0  0  0  0  0
   -3.7727    2.4496    0.8086 C   0  0  0  0  0  0  0  0  0  0  0  0
   -2.5070    2.7463    0.2745 C   0  0  0  0  0  0  0  0  0  0  0  0
   -1.3268    2.3547    0.9275 C   0  0  0  0  0  0  0  0  0  0  0  0
   -0.0612    2.6497    0.3932 C   0  0  0  0  0  0  0  0  0  0  0  0
    1.1193    2.2578    1.0468 C   0  0  0  0  0  0  0  0  0  0  0  0
    2.3851    2.5549    0.5150 C   0  0  0  0  0  0  0  0  0  0  0  0
    3.5663    2.1654    1.1704 C   0  0  0  0  0  0  0  0  0  0  0  0
    6.7195    0.8251    1.0745 C   0  0  0  0  0  0  0  0  0  0  0  0
    6.2632   -0.1164    0.1211 C   0  0  0  0  0  0  0  0  0  0  0  0
    6.9361   -1.3258   -0.1266 C   0  0  0  0  0  0  0  0  0  0  0  0
    6.4653   -2.2463   -1.0783 C   0  0  0  0  0  0  0  0  0  0  0  0
    7.1379   -3.4543   -1.3250 C   0  0  0  0  0  0  0  0  0  0  0  0
    6.6664   -4.3749   -2.2753 C   0  0  0  0  0  0  0  0  0  0  0  0
    7.3463   -5.5712   -2.5087 C   0  0  0  0  0  0  0  0  0  0  0  0
    9.0363   -6.7930   -1.9755 H   0  0  0  0  0  0  0  0  0  0  0  0
    9.8932   -5.2026   -0.3006 H   0  0  0  0  0  0  0  0  0  0  0  0
    9.6878   -3.0549    0.9081 H   0  0  0  0  0  0  0  0  0  0  0  0
    9.4767   -0.9267    2.1046 H   0  0  0  0  0  0  0  0  0  0  0  0
    9.2969    1.1747    3.3101 H   0  0  0  0  0  0  0  0  0  0  0  0
    8.1335    3.2948    3.7583 H   0  0  0  0  0  0  0  0  0  0  0  0
    6.0805    3.8741    2.5222 H   0  0  0  0  0  0  0  0  0  0  0  0
    5.8690    3.4126   -1.0022 H   0  0  0  0  0  0  0  0  0  0  0  0
    3.8251    4.1037   -2.1719 H   0  0  0  0  0  0  0  0  0  0  0  0
    1.3600    4.1956   -2.2968 H   0  0  0  0  0  0  0  0  0  0  0  0
   -1.0873    4.2903   -2.4175 H   0  0  0  0  0  0  0  0  0  0  0  0
   -3.5547    4.3848   -2.5377 H   0  0  0  0  0  0  0  0  0  0  0  0
   -5.7493    3.8438   -1.5846 H   0  0  0  0  0  0  0  0  0  0  0  0
   -5.3063    0.3172   -0.6340 H   0  0  0  0  0  0  0  0  0  0  0  0
   -5.3017   -1.9656   -1.4783 H   0  0  0  0  0  0  0  0  0  0  0  0
   -5.3013   -4.2850   -2.3363 H   0  0  0  0  0  0  0  0  0  0  0  0
   -6.4073   -6.4777   -2.5491 H   0  0  0  0  0  0  0  0  0  0  0  0
   -8.6195   -6.8660   -1.4965 H   0  0  0  0  0  0  0  0  0  0  0  0
   -9.7251   -5.0635   -0.2327 H   0  0  0  0  0  0  0  0  0  0  0  0
   -9.7253   -2.7451    0.6246 H   0  0  0  0  0  0  0  0  0  0  0  0
   -9.7208   -0.4468    1.4723 H   0  0  0  0  0  0  0  0  0  0  0  0
   -9.7491    1.8259    2.3284 H   0  0  0  0  0  0  0  0  0  0  0  0
   -8.6947    4.0327    2.5824 H   0  0  0  0  0  0  0  0  0  0  0  0
   -6.4892    4.4828    1.5759 H   0  0  0  0  0  0  0  0  0  0  0  0
   -3.8489    1.9052    1.7490 H   0  0  0  0  0  0  0  0  0  0  0  0
   -1.3948    1.8114    1.8685 H   0  0  0  0  0  0  0  0  0  0  0  0
    1.0518    1.7130    1.9871 H   0  0  0  0  0  0  0  0  0  0  0  0
    3.5080    1.6180    2.1102 H   0  0  0  0  0  0  0  0  0  0  0  0
    5.3575    0.0952   -0.4458 H   0  0  0  0  0  0  0  0  0  0  0  0
    5.5588   -2.0184   -1.6364 H   0  0  0  0  0  0  0  0  0  0  0  0
    5.7617   -4.1651   -2.8416 H   0  0  0  0  0  0  0  0  0  0  0  0
    6.9693   -6.2743   -3.2466 H   0  0  0  0  0  0  0  0  0  0  0  0
  1  2  4  0
  2  3  4  0
  3  4  4  0
  4  5  4  0
  5  6  4  0
  6  7  4  0
  7  8  4  0
  8  9  4  0
  9 10  4  0
 10 11  4  0
 11 12  1  0
 12 13  4  0
 13 14  4  0
 14 15  4  0
 15 16  4  0
 16 17  4  0
 17 18  4  0
 18 19  4  0
 19 20  4  0
 20 21  4  0
 21 22  4  0
 22 23  1  0
 23 24  4  0
 24 25  4  0
 25 26  4  0
 26 27  4  0
 27 28  4  0
 28 29  4  0
 29 30  4  0
 30 31  4  0
 31 32  4  0
 32 33  4  0
 33 34  4  0
 34 35  4  0
 35 36  4  0
 36 37  4  0
 37 38  4  0
 38 39  4  0
 39 40  4  0
 22 41  4  0
 41 42  4  0
 42 43  4  0
 43 44  4  0
 44 45  4  0
 45 46  4  0
 46 47  4  0
 11 48  4  0
 48 49  4  0
 49 50  4  0
 50 51  4  0
 51 52  4  0
 52 53  4  0
 53 54  4  0
 54  1  4  0
 52  3  4  0
 50  5  4  0
 48  7  4  0
 47 12  4  0
 46 15  4  0
 44 17  4  0
 42 19  4  0
 40 23  4  0
 37 24  4  0
 35 26  4  0
 33 28  4  0
  1 55  1  0
  2 56  1  0
  4 57  1  0
  6 58  1  0
  8 59  1  0
  9 60  1  0
 10 61  1  0
 13 62  1  0
 14 63  1  0
 16 64  1  0
 18 65  1  0
 20 66  1  0
 21 67  1  0
 25 68  1  0
 27 69  1  0
 29 70  1  0
 30 71  1  0
 31 72  1  0
 32 73  1  0
 34 74  1  0
 36 75  1  0
 38 76  1  0
 39 77  1  0
 40 78  1  0
 41 79  1  0
 43 80  1  0
 45 81  1  0
 47 82  1  0
 49 83  1  0
 51 84  1  0
 53 85  1  0
 54 86  1  0
M  END
