
     RDKit          3D

 98111  0  0  0  0  0  0  0  0999 V2000
   13.7409    3.6466   -0.8752 C   0  0  0  0  0  0  0  0  0  0  0  0
   12.7951    4.1795   -1.7454 C   0  0  0  0  0  0  0  0  0  0  0  0
   11.5300    3.5978   -1.8407 C   0  0  0  0  0  0  0  0  0  0  0  0
   11.1947    2.4748   -1.0660 C   0  0  0  0  0  0  0  0  0  0  0  0
    9.9259    1.8774   -1.1499 C   0  0  0  0  0  0  0  0  0  0  0  0
    9.5916    0.7540   -0.3743 C   0  0  0  0  0  0  0  0  0  0  0  0
    8.3228    0.1558   -0.4576 C   0  0  0  0  0  0  0  0  0  0  0  0
    7.9878   -0.9676    0.3179 C   0  0  0  0  0  0  0  0  0  0  0  0
    6.7185   -1.5676    0.2354 C   0  0  0  0  0  0  0  0  0  0  0  0
    6.3616   -2.7002    1.0062 C   0  0  0  0  0  0  0  0  0  0  0  0
    7.3367   -3.2253    1.8880 C   0  0  0  0  0  0  0  0  0  0  0  0
    8.6051   -2.6257    1.9705 C   0  0  0  0  0  0  0  0  0  0  0  0
    8.9433   -1.5046    1.1968 C   0  0  0  0  0  0  0  0  0  0  0  0
   10.2130   -0.9077    1.2815 C   0  0  0  0  0  0  0  0  0  0  0  0
   10.5491    0.2151    0.5065 C   0  0  0  0  0  0  0  0  0  0  0  0
   11.8187    0.8116    0.5913 C   0  0  0  0  0  0  0  0  0  0  0  0
   12.1539    1.9344   -0.1834 C   0  0  0  0  0  0  0  0  0  0  0  0
   13.4229    2.5311   -0.0989 C   0  0  0  0  0  0  0  0  0  0  0  0
    7.0348   -4.3441    2.6791 C   0  0  0  0  0  0  0  0  0  0  0  0
    5.7848   -4.9517    2.6127 C   0  0  0  0  0  0  0  0  0  0  0  0
    4.8181   -4.4473    1.7499 C   0  0  0  0  0  0  0  0  0  0  0  0
    5.0832   -3.3280    0.9396 C   0  0  0  0  0  0  0  0  0  0  0  0
    4.0144   -2.8523    0.0468 C   0  0  0  0  0  0  0  0  0  0  0  0
    3.9557   -3.2753   -1.2864 C   0  0  0  0  0  0  0  0  0  0  0  0
    2.9363   -2.8288   -2.1308 C   0  0  0  0  0  0  0  0  0  0  0  0
    1.9484   -1.9505   -1.6604 C   0  0  0  0  0  0  0  0  0  0  0  0
    0.9160   -1.4945   -2.4964 C   0  0  0  0  0  0  0  0  0  0  0  0
   -0.0759   -0.6179   -2.0247 C   0  0  0  0  0  0  0  0  0  0  0  0
   -1.1093   -0.1630   -2.8612 C   0  0  0  0  0  0  0  0  0  0  0  0
   -2.1022    0.7115   -2.3898 C   0  0  0  0  0  0  0  0  0  0  0  0
   -3.1338    1.1655   -3.2256 C   0  0  0  0  0  0  0  0  0  0  0  0
   -4.1147    2.0347   -2.7418 C   0  0  0  0  0  0  0  0  0  0  0  0
   -4.0899    2.4686   -1.4111 C   0  0  0  0  0  0  0  0  0  0  0  0
   -5.1222    3.3845   -0.9004 C   0  0  0  0  0  0  0  0  0  0  0  0
   -4.8510    4.7648   -0.9193 C   0  0  0  0  0  0  0  0  0  0  0  0
   -5.7857    5.6840   -0.4555 C   0  0  0  0  0  0  0  0  0  0  0  0
   -7.0089    5.2371    0.0352 C   0  0  0  0  0  0  0  0  0  0  0  0
   -7.3155    3.8684    0.0714 C   0  0  0  0  0  0  0  0  0  0  0  0
   -8.5563    3.4366    0.5709 C   0  0  0  0  0  0  0  0  0  0  0  0
   -8.8977    2.0761    0.6238 C   0  0  0  0  0  0  0  0  0  0  0  0
  -10.1398    1.6468    1.1227 C   0  0  0  0  0  0  0  0  0  0  0  0
  -10.4780    0.2840    1.1745 C   0  0  0  0  0  0  0  0  0  0  0  0
  -11.7196   -0.1461    1.6730 C   0  0  0  0  0  0  0  0  0  0  0  0
  -12.0564   -1.5091    1.7238 C   0  0  0  0  0  0  0  0  0  0  0  0
  -13.2973   -1.9404    2.2217 C   0  0  0  0  0  0  0  0  0  0  0  0
  -13.6166   -3.2985    2.2652 C   0  0  0  0  0  0  0  0  0  0  0  0
  -12.7002   -4.2422    1.8118 C   0  0  0  0  0  0  0  0  0  0  0  0
  -11.4632   -3.8293    1.3144 C   0  0  0  0  0  0  0  0  0  0  0  0
  -11.1272   -2.4664    1.2643 C   0  0  0  0  0  0  0  0  0  0  0  0
   -9.8864   -2.0355    0.7666 C   0  0  0  0  0  0  0  0  0  0  0  0
   -9.5510   -0.6720    0.7162 C   0  0  0  0  0  0  0  0  0  0  0  0
   -8.3103   -0.2411    0.2179 C   0  0  0  0  0  0  0  0  0  0  0  0
   -7.9732    1.1221    0.1665 C   0  0  0  0  0  0  0  0  0  0  0  0
   -6.7317    1.5539   -0.3325 C   0  0  0  0  0  0  0  0  0  0  0  0
   -6.3727    2.9216   -0.3961 C   0  0  0  0  0  0  0  0  0  0  0  0
   -3.0568    2.0164   -0.5752 C   0  0  0  0  0  0  0  0  0  0  0  0
   -2.0618    1.1424   -1.0477 C   0  0  0  0  0  0  0  0  0  0  0  0
   -1.0277    0.6878   -0.2124 C   0  0  0  0  0  0  0  0  0  0  0  0
   -0.0338   -0.1865   -0.6844 C   0  0  0  0  0  0  0  0  0  0  0  0
    1.0007   -0.6407    0.1514 C   0  0  0  0  0  0  0  0  0  0  0  0
    1.9923   -1.5178   -0.3191 C   0  0  0  0  0  0  0  0  0  0  0  0
    3.0256   -1.9744    0.5180 C   0  0  0  0  0  0  0  0  0  0  0  0
   14.7267    4.0979   -0.7994 H   0  0  0  0  0  0  0  0  0  0  0  0
   13.0405    5.0481   -2.3509 H   0  0  0  0  0  0  0  0  0  0  0  0
   10.8043    4.0289   -2.5268 H   0  0  0  0  0  0  0  0  0  0  0  0
    9.1859    2.2942   -1.8307 H   0  0  0  0  0  0  0  0  0  0  0  0
    7.5819    0.5716   -1.1385 H   0  0  0  0  0  0  0  0  0  0  0  0
    5.9886   -1.1372   -0.4488 H   0  0  0  0  0  0  0  0  0  0  0  0
    9.3462   -3.0401    2.6523 H   0  0  0  0  0  0  0  0  0  0  0  0
   10.9526   -1.3245    1.9628 H   0  0  0  0  0  0  0  0  0  0  0  0
   12.5589    0.3953    1.2721 H   0  0  0  0  0  0  0  0  0  0  0  0
   14.1754    2.1288    0.5755 H   0  0  0  0  0  0  0  0  0  0  0  0
    7.7782   -4.7542    3.3599 H   0  0  0  0  0  0  0  0  0  0  0  0
    5.5650   -5.8177    3.2313 H   0  0  0  0  0  0  0  0  0  0  0  0
    3.8445   -4.9325    1.7040 H   0  0  0  0  0  0  0  0  0  0  0  0
    4.7089   -3.9581   -1.6749 H   0  0  0  0  0  0  0  0  0  0  0  0
    2.9200   -3.1761   -3.1615 H   0  0  0  0  0  0  0  0  0  0  0  0
    0.8829   -1.8289   -3.5318 H   0  0  0  0  0  0  0  0  0  0  0  0
   -1.1416   -0.4960   -3.8971 H   0  0  0  0  0  0  0  0  0  0  0  0
   -3.1833    0.8462   -4.2643 H   0  0  0  0  0  0  0  0  0  0  0  0
   -4.9050    2.3719   -3.4099 H   0  0  0  0  0  0  0  0  0  0  0  0
   -3.8985    5.1259   -1.3037 H   0  0  0  0  0  0  0  0  0  0  0  0
   -5.5621    6.7472   -0.4775 H   0  0  0  0  0  0  0  0  0  0  0  0
   -7.7276    5.9719    0.3928 H   0  0  0  0  0  0  0  0  0  0  0  0
   -9.2729    4.1753    0.9266 H   0  0  0  0  0  0  0  0  0  0  0  0
  -10.8555    2.3865    1.4770 H   0  0  0  0  0  0  0  0  0  0  0  0
  -12.4366    0.5921    2.0275 H   0  0  0  0  0  0  0  0  0  0  0  0
  -14.0267   -1.2177    2.5805 H   0  0  0  0  0  0  0  0  0  0  0  0
  -14.5804   -3.6177    2.6529 H   0  0  0  0  0  0  0  0  0  0  0  0
  -12.9466   -5.3002    1.8447 H   0  0  0  0  0  0  0  0  0  0  0  0
  -10.7599   -4.5817    0.9646 H   0  0  0  0  0  0  0  0  0  0  0  0
   -9.1698   -2.7742    0.4123 H   0  0  0  0  0  0  0  0  0  0  0  0
   -7.5935   -0.9798   -0.1370 H   0  0  0  0  0  0  0  0  0  0  0  0
   -6.0259    0.8007   -0.6801 H   0  0  0  0  0  0  0  0  0  0  0  0
   -3.0349    2.3512    0.4610 H   0  0  0  0  0  0  0  0  0  0  0  0
   -0.9965    1.0200    0.8241 H   0  0  0  0  0  0  0  0  0  0  0  0
    1.0346   -0.3065    1.1871 H   0  0  0  0  0  0  0  0  0  0  0  0
    3.0669   -1.6434    1.5548 H   0  0  0  0  0  0  0  0  0  0  0  0
  1  2  4  0
  2  3  4  0
  3  4  4  0
  4  5  4  0
  5  6  4  0
  6  7  4  0
  7  8  4  0
  8  9  4  0
  9 10  4  0
 10 11  4  0
 11 12  4  0
 12 13  4  0
 13 14  4  0
 14 15  4  0
 15 16  4  0
 16 17  4  0
 17 18  4  0
 11 19  4  0
 19 20  4  0
 20 21  4  0
 21 22  4  0
 22 23  1  0
 23 24  4  0
 24 25  4  0
 25 26  4  0
 26 27  4  0
 27 28  4  0
 28 29  4  0
 29 30  4  0
 30 31  4  0
 31 32  4  0
 32 33  4  0
 33 34  1  0
 34 35  4  0
 35 36  4  0
 36 37  4  0
 37 38  4  0
 38 39  4  0
 39 40  4  0
 40 41  4  0
 41 42  4  0
 42 43  4  0
 43 44  4  0
 44 45  4  0
 45 46  4  0
 46 47  4  0
 47 48  4  0
 48 49  4  0
 49 50  4  0
 50 51  4  0
 51 52  4  0
 52 53  4  0
 53 54  4  0
 54 55  4  0
 33 56  4  0
 56 57  4  0
 57 58  4  0
 58 59  4  0
 59 60  4  0
 60 61  4  0
 61 62  4  0
 18  1  4  0
 62 23  4  0
 17  4  4  0
 61 26  4  0
 15  6  4  0
 59 28  4  0
 13  8  4  0
 57 30  4  0
 22 10  4  0
 55 34  4  0
 55 38  4  0
 53 40  4  0
 51 42  4  0
 49 44  4  0
  1 63  1  0
  2 64  1  0
  3 65  1  0
  5 66  1  0
  7 67  1  0
  9 68  1  0
 12 69  1  0
 14 70  1  0
 16 71  1  0
 18 72  1  0
 19 73  1  0
 20 74  1  0
 21 75  1  0
 24 76  1  0
 25 77  1  0
 27 78  1  0
 29 79  1  0
 31 80  1  0
 32 81  1  0
 35 82  1  0
 36 83  1  0
 37 84  1  0
 39 85  1  0
 41 86  1  0
 43 87  1  0
 45 88  1  0
 46 89  1  0
 47 90  1  0
 48 91  1  0
 50 92  1  0
 52 93  1  0
 54 94  1  0
 56 95  1  0
 58 96  1  0
 60 97  1  0
 62 98  1  0
M  END
