
     RDKit          3D

 98111  0  0  0  0  0  0  0  0999 V2000
    4.5404   -2.0709   -5.7868 C   0  0  0  0  0  0  0  0  0  0  0  0
    4.3296   -0.8051   -6.3238 C   0  0  0  0  0  0  0  0  0  0  0  0
    4.1096    0.2825   -5.4770 C   0  0  0  0  0  0  0  0  0  0  0  0
    4.0978    0.1184   -4.0810 C   0  0  0  0  0  0  0  0  0  0  0  0
    3.8741    1.2018   -3.2090 C   0  0  0  0  0  0  0  0  0  0  0  0
    3.8515    1.0704   -1.7940 C   0  0  0  0  0  0  0  0  0  0  0  0
    4.0761   -0.2279   -1.2850 C   0  0  0  0  0  0  0  0  0  0  0  0
    4.2992   -1.3151   -2.1488 C   0  0  0  0  0  0  0  0  0  0  0  0
    4.3120   -1.1603   -3.5406 C   0  0  0  0  0  0  0  0  0  0  0  0
    4.5320   -2.2482   -4.4029 C   0  0  0  0  0  0  0  0  0  0  0  0
    4.0768   -0.4432    0.0933 C   0  0  0  0  0  0  0  0  0  0  0  0
    3.8509    0.5972    1.0061 C   0  0  0  0  0  0  0  0  0  0  0  0
    3.8820    0.2647    2.4483 C   0  0  0  0  0  0  0  0  0  0  0  0
    5.1130    0.3605    3.1241 C   0  0  0  0  0  0  0  0  0  0  0  0
    5.2089    0.0673    4.4797 C   0  0  0  0  0  0  0  0  0  0  0  0
    4.0746   -0.3284    5.1823 C   0  0  0  0  0  0  0  0  0  0  0  0
    2.8307   -0.4393    4.5423 C   0  0  0  0  0  0  0  0  0  0  0  0
    1.6962   -0.8400    5.2682 C   0  0  0  0  0  0  0  0  0  0  0  0
    0.4372   -0.9634    4.6590 C   0  0  0  0  0  0  0  0  0  0  0  0
   -0.6964   -1.3633    5.3835 C   0  0  0  0  0  0  0  0  0  0  0  0
   -1.9554   -1.4926    4.7725 C   0  0  0  0  0  0  0  0  0  0  0  0
   -3.0665   -1.8970    5.5279 C   0  0  0  0  0  0  0  0  0  0  0  0
   -4.3208   -2.0330    4.9408 C   0  0  0  0  0  0  0  0  0  0  0  0
   -4.4805   -1.7666    3.5856 C   0  0  0  0  0  0  0  0  0  0  0  0
   -3.3894   -1.3615    2.7939 C   0  0  0  0  0  0  0  0  0  0  0  0
   -3.6312   -1.0949    1.3576 C   0  0  0  0  0  0  0  0  0  0  0  0
   -4.0044    0.2070    0.9925 C   0  0  0  0  0  0  0  0  0  0  0  0
   -4.2592    0.5571   -0.3338 C   0  0  0  0  0  0  0  0  0  0  0  0
   -4.6247    1.8814   -0.6361 C   0  0  0  0  0  0  0  0  0  0  0  0
   -4.8919    2.2916   -1.9485 C   0  0  0  0  0  0  0  0  0  0  0  0
   -5.2567    3.6153   -2.2497 C   0  0  0  0  0  0  0  0  0  0  0  0
   -5.5180    4.0016   -3.5648 C   0  0  0  0  0  0  0  0  0  0  0  0
   -5.4181    3.0704   -4.5932 C   0  0  0  0  0  0  0  0  0  0  0  0
   -5.0566    1.7531   -4.3059 C   0  0  0  0  0  0  0  0  0  0  0  0
   -4.7903    1.3495   -2.9855 C   0  0  0  0  0  0  0  0  0  0  0  0
   -4.4240    0.0254   -2.6737 C   0  0  0  0  0  0  0  0  0  0  0  0
   -4.1479   -0.4162   -1.3512 C   0  0  0  0  0  0  0  0  0  0  0  0
   -3.7697   -1.7643   -1.0000 C   0  0  0  0  0  0  0  0  0  0  0  0
   -3.6391   -2.8069   -1.9568 C   0  0  0  0  0  0  0  0  0  0  0  0
   -3.2653   -4.1219   -1.6251 C   0  0  0  0  0  0  0  0  0  0  0  0
   -3.1458   -5.1292   -2.5996 C   0  0  0  0  0  0  0  0  0  0  0  0
   -2.7714   -6.4268   -2.2464 C   0  0  0  0  0  0  0  0  0  0  0  0
   -2.5103   -6.7335   -0.9153 C   0  0  0  0  0  0  0  0  0  0  0  0
   -2.6252   -5.7427    0.0607 C   0  0  0  0  0  0  0  0  0  0  0  0
   -3.0042   -4.4334   -0.2841 C   0  0  0  0  0  0  0  0  0  0  0  0
   -3.1302   -3.4228    0.6795 C   0  0  0  0  0  0  0  0  0  0  0  0
   -3.5093   -2.0949    0.3581 C   0  0  0  0  0  0  0  0  0  0  0  0
   -2.1031   -1.2164    3.3923 C   0  0  0  0  0  0  0  0  0  0  0  0
   -0.9503   -0.8108    2.6789 C   0  0  0  0  0  0  0  0  0  0  0  0
    0.3086   -0.6810    3.2917 C   0  0  0  0  0  0  0  0  0  0  0  0
    1.4421   -0.2758    2.5657 C   0  0  0  0  0  0  0  0  0  0  0  0
    2.7186   -0.1459    3.1624 C   0  0  0  0  0  0  0  0  0  0  0  0
    3.6105    1.9104    0.5259 C   0  0  0  0  0  0  0  0  0  0  0  0
    3.3607    2.9887    1.4114 C   0  0  0  0  0  0  0  0  0  0  0  0
    3.1214    4.2969    0.9687 C   0  0  0  0  0  0  0  0  0  0  0  0
    2.8733    5.3483    1.8680 C   0  0  0  0  0  0  0  0  0  0  0  0
    2.6394    6.6435    1.4049 C   0  0  0  0  0  0  0  0  0  0  0  0
    2.6504    6.9018    0.0383 C   0  0  0  0  0  0  0  0  0  0  0  0
    2.8941    5.8644   -0.8633 C   0  0  0  0  0  0  0  0  0  0  0  0
    3.1305    4.5547   -0.4087 C   0  0  0  0  0  0  0  0  0  0  0  0
    3.3738    3.4919   -1.2973 C   0  0  0  0  0  0  0  0  0  0  0  0
    3.6141    2.1569   -0.8744 C   0  0  0  0  0  0  0  0  0  0  0  0
    4.7116   -2.9201   -6.4430 H   0  0  0  0  0  0  0  0  0  0  0  0
    4.3352   -0.6620   -7.4010 H   0  0  0  0  0  0  0  0  0  0  0  0
    3.9459    1.2640   -5.9166 H   0  0  0  0  0  0  0  0  0  0  0  0
    3.7112    2.1743   -3.6650 H   0  0  0  0  0  0  0  0  0  0  0  0
    4.4610   -2.3072   -1.7290 H   0  0  0  0  0  0  0  0  0  0  0  0
    4.6980   -3.2446   -3.9994 H   0  0  0  0  0  0  0  0  0  0  0  0
    4.2502   -1.4471    0.4817 H   0  0  0  0  0  0  0  0  0  0  0  0
    6.0054    0.6732    2.5844 H   0  0  0  0  0  0  0  0  0  0  0  0
    6.1659    0.1483    4.9883 H   0  0  0  0  0  0  0  0  0  0  0  0
    4.1704   -0.5521    6.2430 H   0  0  0  0  0  0  0  0  0  0  0  0
    1.7942   -1.0618    6.3298 H   0  0  0  0  0  0  0  0  0  0  0  0
   -0.5953   -1.5807    6.4455 H   0  0  0  0  0  0  0  0  0  0  0  0
   -2.9620   -2.1114    6.5895 H   0  0  0  0  0  0  0  0  0  0  0  0
   -5.1721   -2.3471    5.5385 H   0  0  0  0  0  0  0  0  0  0  0  0
   -5.4656   -1.8787    3.1353 H   0  0  0  0  0  0  0  0  0  0  0  0
   -4.0919    0.9608    1.7754 H   0  0  0  0  0  0  0  0  0  0  0  0
   -4.7038    2.6112    0.1686 H   0  0  0  0  0  0  0  0  0  0  0  0
   -5.3395    4.3566   -1.4579 H   0  0  0  0  0  0  0  0  0  0  0  0
   -5.7989    5.0282   -3.7841 H   0  0  0  0  0  0  0  0  0  0  0  0
   -5.6210    3.3672   -5.6190 H   0  0  0  0  0  0  0  0  0  0  0  0
   -4.9838    1.0396   -5.1237 H   0  0  0  0  0  0  0  0  0  0  0  0
   -4.3553   -0.6737   -3.5023 H   0  0  0  0  0  0  0  0  0  0  0  0
   -3.8328   -2.6048   -3.0066 H   0  0  0  0  0  0  0  0  0  0  0  0
   -3.3450   -4.9076   -3.6456 H   0  0  0  0  0  0  0  0  0  0  0  0
   -2.6841   -7.1950   -3.0103 H   0  0  0  0  0  0  0  0  0  0  0  0
   -2.2186   -7.7420   -0.6343 H   0  0  0  0  0  0  0  0  0  0  0  0
   -2.4158   -5.9976    1.0974 H   0  0  0  0  0  0  0  0  0  0  0  0
   -2.9201   -3.6839    1.7160 H   0  0  0  0  0  0  0  0  0  0  0  0
   -1.0297   -0.5914    1.6143 H   0  0  0  0  0  0  0  0  0  0  0  0
    1.3224   -0.0557    1.5054 H   0  0  0  0  0  0  0  0  0  0  0  0
    3.3455    2.8085    2.4858 H   0  0  0  0  0  0  0  0  0  0  0  0
    2.8601    5.1612    2.9397 H   0  0  0  0  0  0  0  0  0  0  0  0
    2.4485    7.4467    2.1113 H   0  0  0  0  0  0  0  0  0  0  0  0
    2.4686    7.9086   -0.3281 H   0  0  0  0  0  0  0  0  0  0  0  0
    2.8971    6.0853   -1.9283 H   0  0  0  0  0  0  0  0  0  0  0  0
    3.3700    3.7312   -2.3571 H   0  0  0  0  0  0  0  0  0  0  0  0
  1  2  4  0
  2  3  4  0
  3  4  4  0
  4  5  4  0
  5  6  4  0
  6  7  4  0
  7  8  4  0
  8  9  4  0
  9 10  4  0
  7 11  4  0
 11 12  4  0
 12 13  1  0
 13 14  4  0
 14 15  4  0
 15 16  4  0
 16 17  4  0
 17 18  4  0
 18 19  4  0
 19 20  4  0
 20 21  4  0
 21 22  4  0
 22 23  4  0
 23 24  4  0
 24 25  4  0
 25 26  1  0
 26 27  4  0
 27 28  4  0
 28 29  4  0
 29 30  4  0
 30 31  4  0
 31 32  4  0
 32 33  4  0
 33 34  4  0
 34 35  4  0
 35 36  4  0
 36 37  4  0
 37 38  4  0
 38 39  4  0
 39 40  4  0
 40 41  4  0
 41 42  4  0
 42 43  4  0
 43 44  4  0
 44 45  4  0
 45 46  4  0
 46 47  4  0
 25 48  4  0
 48 49  4  0
 49 50  4  0
 50 51  4  0
 51 52  4  0
 12 53  4  0
 53 54  4  0
 54 55  4  0
 55 56  4  0
 56 57  4  0
 57 58  4  0
 58 59  4  0
 59 60  4  0
 60 61  4  0
 61 62  4  0
 10  1  4  0
 52 13  4  0
 62 53  4  0
  9  4  4  0
 52 17  4  0
 60 55  4  0
 62  6  4  0
 50 19  4  0
 48 21  4  0
 47 26  4  0
 37 28  4  0
 47 38  4  0
 35 30  4  0
 45 40  4  0
  1 63  1  0
  2 64  1  0
  3 65  1  0
  5 66  1  0
  8 67  1  0
 10 68  1  0
 11 69  1  0
 14 70  1  0
 15 71  1  0
 16 72  1  0
 18 73  1  0
 20 74  1  0
 22 75  1  0
 23 76  1  0
 24 77  1  0
 27 78  1  0
 29 79  1  0
 31 80  1  0
 32 81  1  0
 33 82  1  0
 34 83  1  0
 36 84  1  0
 39 85  1  0
 41 86  1  0
 42 87  1  0
 43 88  1  0
 44 89  1  0
 46 90  1  0
 49 91  1  0
 51 92  1  0
 54 93  1  0
 56 94  1  0
 57 95  1  0
 58 96  1  0
 59 97  1  0
 61 98  1  0
M  END
