
     RDKit          3D

 98111  0  0  0  0  0  0  0  0999 V2000
   -4.7253   -7.4989   -2.9868 C   0  0  0  0  0  0  0  0  0  0  0  0
   -4.3134   -7.5958   -1.6617 C   0  0  0  0  0  0  0  0  0  0  0  0
   -4.1450   -6.4391   -0.8988 C   0  0  0  0  0  0  0  0  0  0  0  0
   -4.3866   -5.1695   -1.4515 C   0  0  0  0  0  0  0  0  0  0  0  0
   -4.2224   -3.9912   -0.6983 C   0  0  0  0  0  0  0  0  0  0  0  0
   -4.4592   -2.6958   -1.2278 C   0  0  0  0  0  0  0  0  0  0  0  0
   -4.8779   -2.6319   -2.5793 C   0  0  0  0  0  0  0  0  0  0  0  0
   -5.0427   -3.8050   -3.3358 C   0  0  0  0  0  0  0  0  0  0  0  0
   -4.8030   -5.0734   -2.7907 C   0  0  0  0  0  0  0  0  0  0  0  0
   -4.9689   -6.2452   -3.5488 C   0  0  0  0  0  0  0  0  0  0  0  0
   -5.1316   -1.3932   -3.1733 C   0  0  0  0  0  0  0  0  0  0  0  0
   -4.9791   -0.2124   -2.4536 C   0  0  0  0  0  0  0  0  0  0  0  0
   -4.5680   -0.2351   -1.1188 C   0  0  0  0  0  0  0  0  0  0  0  0
   -4.4246    0.9772   -0.4222 C   0  0  0  0  0  0  0  0  0  0  0  0
   -4.0148    1.0130    0.9168 C   0  0  0  0  0  0  0  0  0  0  0  0
   -3.8727    2.2274    1.6109 C   0  0  0  0  0  0  0  0  0  0  0  0
   -3.4569    2.2580    2.9508 C   0  0  0  0  0  0  0  0  0  0  0  0
   -3.3140    3.5372    3.6632 C   0  0  0  0  0  0  0  0  0  0  0  0
   -4.3912    3.9788    4.4531 C   0  0  0  0  0  0  0  0  0  0  0  0
   -4.3233    5.1814    5.1477 C   0  0  0  0  0  0  0  0  0  0  0  0
   -3.1746    5.9626    5.0637 C   0  0  0  0  0  0  0  0  0  0  0  0
   -2.0789    5.5545    4.2878 C   0  0  0  0  0  0  0  0  0  0  0  0
   -0.9265    6.3557    4.2174 C   0  0  0  0  0  0  0  0  0  0  0  0
    0.1900    5.9772    3.4550 C   0  0  0  0  0  0  0  0  0  0  0  0
    1.3416    6.7769    3.3863 C   0  0  0  0  0  0  0  0  0  0  0  0
    2.4613    6.3960    2.6273 C   0  0  0  0  0  0  0  0  0  0  0  0
    3.5937    7.2229    2.5814 C   0  0  0  0  0  0  0  0  0  0  0  0
    4.7127    6.8641    1.8363 C   0  0  0  0  0  0  0  0  0  0  0  0
    4.7144    5.6677    1.1280 C   0  0  0  0  0  0  0  0  0  0  0  0
    3.5988    4.8100    1.1506 C   0  0  0  0  0  0  0  0  0  0  0  0
    3.6773    3.5530    0.3881 C   0  0  0  0  0  0  0  0  0  0  0  0
    3.5228    3.5487   -1.0028 C   0  0  0  0  0  0  0  0  0  0  0  0
    3.6039    2.3546   -1.7240 C   0  0  0  0  0  0  0  0  0  0  0  0
    3.8408    1.1342   -1.0713 C   0  0  0  0  0  0  0  0  0  0  0  0
    3.9245   -0.0798   -1.7796 C   0  0  0  0  0  0  0  0  0  0  0  0
    4.1617   -1.3287   -1.1482 C   0  0  0  0  0  0  0  0  0  0  0  0
    4.3126   -1.3061    0.2597 C   0  0  0  0  0  0  0  0  0  0  0  0
    4.2294   -0.0967    0.9712 C   0  0  0  0  0  0  0  0  0  0  0  0
    3.9980    1.1243    0.3244 C   0  0  0  0  0  0  0  0  0  0  0  0
    3.9196    2.3329    1.0388 C   0  0  0  0  0  0  0  0  0  0  0  0
    4.5475   -2.4945    0.9552 C   0  0  0  0  0  0  0  0  0  0  0  0
    4.6376   -3.7093    0.2827 C   0  0  0  0  0  0  0  0  0  0  0  0
    4.4950   -3.7719   -1.1054 C   0  0  0  0  0  0  0  0  0  0  0  0
    4.5924   -5.0163   -1.7520 C   0  0  0  0  0  0  0  0  0  0  0  0
    4.4578   -5.1370   -3.1414 C   0  0  0  0  0  0  0  0  0  0  0  0
    4.5560   -6.3818   -3.7862 C   0  0  0  0  0  0  0  0  0  0  0  0
    4.4190   -6.4804   -5.1713 C   0  0  0  0  0  0  0  0  0  0  0  0
    4.1823   -5.3369   -5.9272 C   0  0  0  0  0  0  0  0  0  0  0  0
    4.0827   -4.0950   -5.2980 C   0  0  0  0  0  0  0  0  0  0  0  0
    4.2187   -3.9804   -3.9037 C   0  0  0  0  0  0  0  0  0  0  0  0
    4.1219   -2.7366   -3.2508 C   0  0  0  0  0  0  0  0  0  0  0  0
    4.2549   -2.5885   -1.8456 C   0  0  0  0  0  0  0  0  0  0  0  0
    2.4471    5.1771    1.9078 C   0  0  0  0  0  0  0  0  0  0  0  0
    1.2731    4.3888    1.9820 C   0  0  0  0  0  0  0  0  0  0  0  0
    0.1541    4.7695    2.7443 C   0  0  0  0  0  0  0  0  0  0  0  0
   -0.9993    3.9680    2.8126 C   0  0  0  0  0  0  0  0  0  0  0  0
   -2.1344    4.3328    3.5759 C   0  0  0  0  0  0  0  0  0  0  0  0
   -3.1876    1.0460    3.5963 C   0  0  0  0  0  0  0  0  0  0  0  0
   -3.3277   -0.1670    2.9175 C   0  0  0  0  0  0  0  0  0  0  0  0
   -3.7405   -0.1968    1.5758 C   0  0  0  0  0  0  0  0  0  0  0  0
   -3.8864   -1.4085    0.8742 C   0  0  0  0  0  0  0  0  0  0  0  0
   -4.3004   -1.4713   -0.4818 C   0  0  0  0  0  0  0  0  0  0  0  0
   -4.8574   -8.3974   -3.5839 H   0  0  0  0  0  0  0  0  0  0  0  0
   -4.1226   -8.5702   -1.2199 H   0  0  0  0  0  0  0  0  0  0  0  0
   -3.8224   -6.5363    0.1354 H   0  0  0  0  0  0  0  0  0  0  0  0
   -3.8997   -4.1018    0.3332 H   0  0  0  0  0  0  0  0  0  0  0  0
   -5.3654   -3.7304   -4.3731 H   0  0  0  0  0  0  0  0  0  0  0  0
   -5.2905   -6.1877   -4.5862 H   0  0  0  0  0  0  0  0  0  0  0  0
   -5.4534   -1.3321   -4.2111 H   0  0  0  0  0  0  0  0  0  0  0  0
   -5.1856    0.7326   -2.9521 H   0  0  0  0  0  0  0  0  0  0  0  0
   -4.6362    1.9153   -0.9336 H   0  0  0  0  0  0  0  0  0  0  0  0
   -4.0849    3.1674    1.1035 H   0  0  0  0  0  0  0  0  0  0  0  0
   -5.2955    3.3766    4.5225 H   0  0  0  0  0  0  0  0  0  0  0  0
   -5.1642    5.5104    5.7524 H   0  0  0  0  0  0  0  0  0  0  0  0
   -3.1407    6.9007    5.6141 H   0  0  0  0  0  0  0  0  0  0  0  0
   -0.8960    7.2939    4.7688 H   0  0  0  0  0  0  0  0  0  0  0  0
    1.3662    7.7158    3.9372 H   0  0  0  0  0  0  0  0  0  0  0  0
    3.6124    8.1617    3.1313 H   0  0  0  0  0  0  0  0  0  0  0  0
    5.5835    7.5137    1.8107 H   0  0  0  0  0  0  0  0  0  0  0  0
    5.5986    5.3927    0.5552 H   0  0  0  0  0  0  0  0  0  0  0  0
    3.3318    4.4796   -1.5329 H   0  0  0  0  0  0  0  0  0  0  0  0
    3.4786    2.3863   -2.8040 H   0  0  0  0  0  0  0  0  0  0  0  0
    3.7993   -0.0362   -2.8581 H   0  0  0  0  0  0  0  0  0  0  0  0
    4.3459   -0.1052    2.0540 H   0  0  0  0  0  0  0  0  0  0  0  0
    4.0452    2.3290    2.1207 H   0  0  0  0  0  0  0  0  0  0  0  0
    4.6650   -2.4895    2.0371 H   0  0  0  0  0  0  0  0  0  0  0  0
    4.8220   -4.6117    0.8621 H   0  0  0  0  0  0  0  0  0  0  0  0
    4.7774   -5.9122   -1.1613 H   0  0  0  0  0  0  0  0  0  0  0  0
    4.7407   -7.2860   -3.2106 H   0  0  0  0  0  0  0  0  0  0  0  0
    4.4971   -7.4491   -5.6576 H   0  0  0  0  0  0  0  0  0  0  0  0
    4.0747   -5.4094   -7.0062 H   0  0  0  0  0  0  0  0  0  0  0  0
    3.8972   -3.2126   -5.9064 H   0  0  0  0  0  0  0  0  0  0  0  0
    3.9367   -1.8634   -3.8703 H   0  0  0  0  0  0  0  0  0  0  0  0
    1.2239    3.4507    1.4304 H   0  0  0  0  0  0  0  0  0  0  0  0
   -1.0087    3.0314    2.2562 H   0  0  0  0  0  0  0  0  0  0  0  0
   -2.8626    1.0415    4.6347 H   0  0  0  0  0  0  0  0  0  0  0  0
   -3.1105   -1.0915    3.4478 H   0  0  0  0  0  0  0  0  0  0  0  0
   -3.6665   -2.3254    1.4141 H   0  0  0  0  0  0  0  0  0  0  0  0
  1  2  4  0
  2  3  4  0
  3  4  4  0
  4  5  4  0
  5  6  4  0
  6  7  4  0
  7  8  4  0
  8  9  4  0
  9 10  4  0
  7 11  4  0
 11 12  4  0
 12 13  4  0
 13 14  4  0
 14 15  4  0
 15 16  4  0
 16 17  4  0
 17 18  1  0
 18 19  4  0
 19 20  4  0
 20 21  4  0
 21 22  4  0
 22 23  4  0
 23 24  4  0
 24 25  4  0
 25 26  4  0
 26 27  4  0
 27 28  4  0
 28 29  4  0
 29 30  4  0
 30 31  1  0
 31 32  4  0
 32 33  4  0
 33 34  4  0
 34 35  4  0
 35 36  4  0
 36 37  4  0
 37 38  4  0
 38 39  4  0
 39 40  4  0
 37 41  4  0
 41 42  4  0
 42 43  4  0
 43 44  4  0
 44 45  4  0
 45 46  4  0
 46 47  4  0
 47 48  4  0
 48 49  4  0
 49 50  4  0
 50 51  4  0
 51 52  4  0
 30 53  4  0
 53 54  4  0
 54 55  4  0
 55 56  4  0
 56 57  4  0
 17 58  4  0
 58 59  4  0
 59 60  4  0
 60 61  4  0
 61 62  4  0
 10  1  4  0
 62 13  4  0
  9  4  4  0
 60 15  4  0
 62  6  4  0
 57 18  4  0
 57 22  4  0
 55 24  4  0
 53 26  4  0
 40 31  4  0
 52 43  4  0
 39 34  4  0
 50 45  4  0
 52 36  4  0
  1 63  1  0
  2 64  1  0
  3 65  1  0
  5 66  1  0
  8 67  1  0
 10 68  1  0
 11 69  1  0
 12 70  1  0
 14 71  1  0
 16 72  1  0
 19 73  1  0
 20 74  1  0
 21 75  1  0
 23 76  1  0
 25 77  1  0
 27 78  1  0
 28 79  1  0
 29 80  1  0
 32 81  1  0
 33 82  1  0
 35 83  1  0
 38 84  1  0
 40 85  1  0
 41 86  1  0
 42 87  1  0
 44 88  1  0
 46 89  1  0
 47 90  1  0
 48 91  1  0
 49 92  1  0
 51 93  1  0
 54 94  1  0
 56 95  1  0
 58 96  1  0
 59 97  1  0
 61 98  1  0
M  END
