
     RDKit          3D

 98111  0  0  0  0  0  0  0  0999 V2000
    7.3483   -5.0672   -2.2751 C   0  0  0  0  0  0  0  0  0  0  0  0
    6.8539   -5.6575   -1.1167 C   0  0  0  0  0  0  0  0  0  0  0  0
    6.1183   -4.8958   -0.2076 C   0  0  0  0  0  0  0  0  0  0  0  0
    5.8674   -3.5332   -0.4453 C   0  0  0  0  0  0  0  0  0  0  0  0
    5.1271   -2.7474    0.4594 C   0  0  0  0  0  0  0  0  0  0  0  0
    4.8541   -1.3679    0.2519 C   0  0  0  0  0  0  0  0  0  0  0  0
    5.3738   -0.8044   -0.9358 C   0  0  0  0  0  0  0  0  0  0  0  0
    6.1136   -1.5812   -1.8450 C   0  0  0  0  0  0  0  0  0  0  0  0
    6.3677   -2.9390   -1.6157 C   0  0  0  0  0  0  0  0  0  0  0  0
    7.1071   -3.7157   -2.5240 C   0  0  0  0  0  0  0  0  0  0  0  0
    5.1520    0.5405   -1.2156 C   0  0  0  0  0  0  0  0  0  0  0  0
    4.4247    1.3390   -0.3373 C   0  0  0  0  0  0  0  0  0  0  0  0
    3.8810    0.8374    0.8626 C   0  0  0  0  0  0  0  0  0  0  0  0
    3.1305    1.6682    1.7618 C   0  0  0  0  0  0  0  0  0  0  0  0
    2.9304    3.1112    1.4533 C   0  0  0  0  0  0  0  0  0  0  0  0
    3.8807    4.0302    1.9392 C   0  0  0  0  0  0  0  0  0  0  0  0
    3.7514    5.3912    1.6879 C   0  0  0  0  0  0  0  0  0  0  0  0
    2.6694    5.8566    0.9461 C   0  0  0  0  0  0  0  0  0  0  0  0
    1.7019    4.9717    0.4450 C   0  0  0  0  0  0  0  0  0  0  0  0
    0.6169    5.4601   -0.3031 C   0  0  0  0  0  0  0  0  0  0  0  0
   -0.3680    4.6034   -0.8208 C   0  0  0  0  0  0  0  0  0  0  0  0
   -1.4516    5.0894   -1.5707 C   0  0  0  0  0  0  0  0  0  0  0  0
   -2.4366    4.2304   -2.0882 C   0  0  0  0  0  0  0  0  0  0  0  0
   -3.5067    4.7488   -2.8343 C   0  0  0  0  0  0  0  0  0  0  0  0
   -4.4906    3.9123   -3.3544 C   0  0  0  0  0  0  0  0  0  0  0  0
   -4.4176    2.5415   -3.1346 C   0  0  0  0  0  0  0  0  0  0  0  0
   -3.3596    1.9845   -2.3908 C   0  0  0  0  0  0  0  0  0  0  0  0
   -3.3378    0.5090   -2.1937 C   0  0  0  0  0  0  0  0  0  0  0  0
   -3.9849   -0.0739   -1.0519 C   0  0  0  0  0  0  0  0  0  0  0  0
   -4.6510    0.7133   -0.0909 C   0  0  0  0  0  0  0  0  0  0  0  0
   -5.2760    0.1580    1.0221 C   0  0  0  0  0  0  0  0  0  0  0  0
   -5.2650   -1.2176    1.2308 C   0  0  0  0  0  0  0  0  0  0  0  0
   -5.9040   -1.7432    2.3676 C   0  0  0  0  0  0  0  0  0  0  0  0
   -5.9222   -3.1181    2.6323 C   0  0  0  0  0  0  0  0  0  0  0  0
   -6.5585   -3.6424    3.7706 C   0  0  0  0  0  0  0  0  0  0  0  0
   -6.5653   -5.0162    4.0147 C   0  0  0  0  0  0  0  0  0  0  0  0
   -5.9363   -5.8806    3.1249 C   0  0  0  0  0  0  0  0  0  0  0  0
   -5.3003   -5.3708    1.9916 C   0  0  0  0  0  0  0  0  0  0  0  0
   -5.2854   -3.9888    1.7326 C   0  0  0  0  0  0  0  0  0  0  0  0
   -4.6486   -3.4531    0.5954 C   0  0  0  0  0  0  0  0  0  0  0  0
   -4.6133   -2.0621    0.3032 C   0  0  0  0  0  0  0  0  0  0  0  0
   -3.9659   -1.4788   -0.8533 C   0  0  0  0  0  0  0  0  0  0  0  0
   -3.2908   -2.2516   -1.8270 C   0  0  0  0  0  0  0  0  0  0  0  0
   -2.6502   -1.7042   -2.9494 C   0  0  0  0  0  0  0  0  0  0  0  0
   -1.9941   -2.5435   -3.8689 C   0  0  0  0  0  0  0  0  0  0  0  0
   -1.3442   -2.0229   -4.9860 C   0  0  0  0  0  0  0  0  0  0  0  0
   -1.3419   -0.6533   -5.1988 C   0  0  0  0  0  0  0  0  0  0  0  0
   -1.9925    0.1881   -4.2945 C   0  0  0  0  0  0  0  0  0  0  0  0
   -2.6634   -0.3121   -3.1487 C   0  0  0  0  0  0  0  0  0  0  0  0
   -2.3490    2.8376   -1.8565 C   0  0  0  0  0  0  0  0  0  0  0  0
   -1.2506    2.3659   -1.0994 C   0  0  0  0  0  0  0  0  0  0  0  0
   -0.2663    3.2257   -0.5827 C   0  0  0  0  0  0  0  0  0  0  0  0
    0.8176    2.7357    0.1665 C   0  0  0  0  0  0  0  0  0  0  0  0
    1.8199    3.5837    0.6934 C   0  0  0  0  0  0  0  0  0  0  0  0
    2.5791    1.1288    2.9644 C   0  0  0  0  0  0  0  0  0  0  0  0
    1.8147    1.8786    3.8948 C   0  0  0  0  0  0  0  0  0  0  0  0
    1.2986    1.3089    5.0603 C   0  0  0  0  0  0  0  0  0  0  0  0
    1.5300   -0.0307    5.3308 C   0  0  0  0  0  0  0  0  0  0  0  0
    2.2735   -0.7939    4.4335 C   0  0  0  0  0  0  0  0  0  0  0  0
    2.7974   -0.2297    3.2557 C   0  0  0  0  0  0  0  0  0  0  0  0
    3.5398   -1.0203    2.3656 C   0  0  0  0  0  0  0  0  0  0  0  0
    4.0964   -0.5334    1.1601 C   0  0  0  0  0  0  0  0  0  0  0  0
    7.9214   -5.6568   -2.9856 H   0  0  0  0  0  0  0  0  0  0  0  0
    7.0394   -6.7099   -0.9191 H   0  0  0  0  0  0  0  0  0  0  0  0
    5.7398   -5.3753    0.6925 H   0  0  0  0  0  0  0  0  0  0  0  0
    4.7580   -3.2442    1.3521 H   0  0  0  0  0  0  0  0  0  0  0  0
    6.5004   -1.1188   -2.7519 H   0  0  0  0  0  0  0  0  0  0  0  0
    7.5008   -3.2701   -3.4347 H   0  0  0  0  0  0  0  0  0  0  0  0
    5.5409    0.9923   -2.1259 H   0  0  0  0  0  0  0  0  0  0  0  0
    4.2848    2.3812   -0.6197 H   0  0  0  0  0  0  0  0  0  0  0  0
    4.7301    3.6751    2.5209 H   0  0  0  0  0  0  0  0  0  0  0  0
    4.4926    6.0884    2.0694 H   0  0  0  0  0  0  0  0  0  0  0  0
    2.5867    6.9257    0.7604 H   0  0  0  0  0  0  0  0  0  0  0  0
    0.5364    6.5298   -0.4879 H   0  0  0  0  0  0  0  0  0  0  0  0
   -1.5286    6.1594   -1.7552 H   0  0  0  0  0  0  0  0  0  0  0  0
   -3.5826    5.8188   -3.0180 H   0  0  0  0  0  0  0  0  0  0  0  0
   -5.3128    4.3286   -3.9306 H   0  0  0  0  0  0  0  0  0  0  0  0
   -5.1908    1.8943   -3.5457 H   0  0  0  0  0  0  0  0  0  0  0  0
   -4.6932    1.7968   -0.1898 H   0  0  0  0  0  0  0  0  0  0  0  0
   -5.7699    0.8249    1.7258 H   0  0  0  0  0  0  0  0  0  0  0  0
   -6.3985   -1.0667    3.0631 H   0  0  0  0  0  0  0  0  0  0  0  0
   -7.0541   -2.9799    4.4766 H   0  0  0  0  0  0  0  0  0  0  0  0
   -7.0613   -5.4092    4.8984 H   0  0  0  0  0  0  0  0  0  0  0  0
   -5.9391   -6.9514    3.3112 H   0  0  0  0  0  0  0  0  0  0  0  0
   -4.8136   -6.0628    1.3079 H   0  0  0  0  0  0  0  0  0  0  0  0
   -4.1671   -4.1589   -0.0754 H   0  0  0  0  0  0  0  0  0  0  0  0
   -3.2500   -3.3324   -1.7196 H   0  0  0  0  0  0  0  0  0  0  0  0
   -1.9824   -3.6212   -3.7182 H   0  0  0  0  0  0  0  0  0  0  0  0
   -0.8406   -2.6862   -5.6836 H   0  0  0  0  0  0  0  0  0  0  0  0
   -0.8344   -0.2325   -6.0626 H   0  0  0  0  0  0  0  0  0  0  0  0
   -1.9627    1.2581   -4.4927 H   0  0  0  0  0  0  0  0  0  0  0  0
   -1.1551    1.2982   -0.9039 H   0  0  0  0  0  0  0  0  0  0  0  0
    0.8794    1.6621    0.3415 H   0  0  0  0  0  0  0  0  0  0  0  0
    1.6051    2.9312    3.7142 H   0  0  0  0  0  0  0  0  0  0  0  0
    0.7175    1.9158    5.7491 H   0  0  0  0  0  0  0  0  0  0  0  0
    1.1325   -0.4836    6.2347 H   0  0  0  0  0  0  0  0  0  0  0  0
    2.4420   -1.8444    4.6623 H   0  0  0  0  0  0  0  0  0  0  0  0
    3.6798   -2.0630    2.6386 H   0  0  0  0  0  0  0  0  0  0  0  0
  1  2  4  0
  2  3  4  0
  3  4  4  0
  4  5  4  0
  5  6  4  0
  6  7  4  0
  7  8  4  0
  8  9  4  0
  9 10  4  0
  7 11  4  0
 11 12  4  0
 12 13  4  0
 13 14  4  0
 14 15  1  0
 15 16  4  0
 16 17  4  0
 17 18  4  0
 18 19  4  0
 19 20  4  0
 20 21  4  0
 21 22  4  0
 22 23  4  0
 23 24  4  0
 24 25  4  0
 25 26  4  0
 26 27  4  0
 27 28  1  0
 28 29  4  0
 29 30  4  0
 30 31  4  0
 31 32  4  0
 32 33  4  0
 33 34  4  0
 34 35  4  0
 35 36  4  0
 36 37  4  0
 37 38  4  0
 38 39  4  0
 39 40  4  0
 40 41  4  0
 41 42  4  0
 42 43  4  0
 43 44  4  0
 44 45  4  0
 45 46  4  0
 46 47  4  0
 47 48  4  0
 48 49  4  0
 27 50  4  0
 50 51  4  0
 51 52  4  0
 52 53  4  0
 53 54  4  0
 14 55  4  0
 55 56  4  0
 56 57  4  0
 57 58  4  0
 58 59  4  0
 59 60  4  0
 60 61  4  0
 61 62  4  0
 10  1  4  0
 62 13  4  0
  9  4  4  0
 54 15  4  0
 60 55  4  0
 62  6  4  0
 54 19  4  0
 52 21  4  0
 50 23  4  0
 49 28  4  0
 42 29  4  0
 49 44  4  0
 41 32  4  0
 39 34  4  0
  1 63  1  0
  2 64  1  0
  3 65  1  0
  5 66  1  0
  8 67  1  0
 10 68  1  0
 11 69  1  0
 12 70  1  0
 16 71  1  0
 17 72  1  0
 18 73  1  0
 20 74  1  0
 22 75  1  0
 24 76  1  0
 25 77  1  0
 26 78  1  0
 30 79  1  0
 31 80  1  0
 33 81  1  0
 35 82  1  0
 36 83  1  0
 37 84  1  0
 38 85  1  0
 40 86  1  0
 43 87  1  0
 45 88  1  0
 46 89  1  0
 47 90  1  0
 48 91  1  0
 51 92  1  0
 53 93  1  0
 56 94  1  0
 57 95  1  0
 58 96  1  0
 59 97  1  0
 61 98  1  0
M  END
