
     RDKit          3D

 90103  0  0  0  0  0  0  0  0999 V2000
   -4.5058    6.9507   -0.1775 C   0  0  0  0  0  0  0  0  0  0  0  0
   -5.0620    6.2349    0.8705 C   0  0  0  0  0  0  0  0  0  0  0  0
   -5.0333    4.8371    0.8518 C   0  0  0  0  0  0  0  0  0  0  0  0
   -4.4488    4.1038   -0.2133 C   0  0  0  0  0  0  0  0  0  0  0  0
   -3.8890    4.8616   -1.2711 C   0  0  0  0  0  0  0  0  0  0  0  0
   -3.9235    6.2669   -1.2409 C   0  0  0  0  0  0  0  0  0  0  0  0
   -3.2952    4.2129   -2.3586 C   0  0  0  0  0  0  0  0  0  0  0  0
   -3.2369    2.8188   -2.4357 C   0  0  0  0  0  0  0  0  0  0  0  0
   -2.6364    2.1942   -3.5373 C   0  0  0  0  0  0  0  0  0  0  0  0
   -2.5735    0.8044   -3.6258 C   0  0  0  0  0  0  0  0  0  0  0  0
   -3.1097    0.0048   -2.6130 C   0  0  0  0  0  0  0  0  0  0  0  0
   -3.7178    0.6195   -1.4930 C   0  0  0  0  0  0  0  0  0  0  0  0
   -4.2549   -0.1896   -0.4705 C   0  0  0  0  0  0  0  0  0  0  0  0
   -4.1805   -1.5878   -0.5729 C   0  0  0  0  0  0  0  0  0  0  0  0
   -3.5773   -2.2034   -1.6773 C   0  0  0  0  0  0  0  0  0  0  0  0
   -3.4955   -3.6697   -1.7682 C   0  0  0  0  0  0  0  0  0  0  0  0
   -4.6075   -4.3675   -2.2734 C   0  0  0  0  0  0  0  0  0  0  0  0
   -4.5894   -5.7530   -2.3909 C   0  0  0  0  0  0  0  0  0  0  0  0
   -3.4571   -6.4640   -2.0042 C   0  0  0  0  0  0  0  0  0  0  0  0
   -2.3292   -5.8033   -1.4939 C   0  0  0  0  0  0  0  0  0  0  0  0
   -1.1948   -6.5374   -1.1071 C   0  0  0  0  0  0  0  0  0  0  0  0
   -0.0505   -5.9094   -0.5898 C   0  0  0  0  0  0  0  0  0  0  0  0
    1.0833   -6.6416   -0.2038 C   0  0  0  0  0  0  0  0  0  0  0  0
    2.2269   -6.0123    0.3172 C   0  0  0  0  0  0  0  0  0  0  0  0
    3.3425   -6.7767    0.6901 C   0  0  0  0  0  0  0  0  0  0  0  0
    4.4840   -6.1715    1.2071 C   0  0  0  0  0  0  0  0  0  0  0  0
    4.5233   -4.7901    1.3617 C   0  0  0  0  0  0  0  0  0  0  0  0
    3.4239   -3.9894    1.0021 C   0  0  0  0  0  0  0  0  0  0  0  0
    3.5279   -2.5349    1.2057 C   0  0  0  0  0  0  0  0  0  0  0  0
    2.9275   -1.9238    2.3149 C   0  0  0  0  0  0  0  0  0  0  0  0
    3.0086   -0.5372    2.5155 C   0  0  0  0  0  0  0  0  0  0  0  0
    3.7144    0.2665    1.5897 C   0  0  0  0  0  0  0  0  0  0  0  0
    4.3278   -0.3434    0.4759 C   0  0  0  0  0  0  0  0  0  0  0  0
    4.2298   -1.7326    0.2964 C   0  0  0  0  0  0  0  0  0  0  0  0
    5.0222    0.4537   -0.4334 C   0  0  0  0  0  0  0  0  0  0  0  0
    5.1096    1.8368   -0.2468 C   0  0  0  0  0  0  0  0  0  0  0  0
    4.5093    2.4925    0.8534 C   0  0  0  0  0  0  0  0  0  0  0  0
    3.8043    1.6752    1.7766 C   0  0  0  0  0  0  0  0  0  0  0  0
    3.1766    2.2540    2.9008 C   0  0  0  0  0  0  0  0  0  0  0  0
    3.2520    3.6352    3.1004 C   0  0  0  0  0  0  0  0  0  0  0  0
    3.9382    4.4670    2.2098 C   0  0  0  0  0  0  0  0  0  0  0  0
    3.9845    5.8509    2.4544 C   0  0  0  0  0  0  0  0  0  0  0  0
    4.6566    6.7127    1.5924 C   0  0  0  0  0  0  0  0  0  0  0  0
    5.2920    6.1990    0.4732 C   0  0  0  0  0  0  0  0  0  0  0  0
    5.2527    4.8246    0.2196 C   0  0  0  0  0  0  0  0  0  0  0  0
    4.5781    3.9137    1.0735 C   0  0  0  0  0  0  0  0  0  0  0  0
    2.4814    1.4436    3.8086 C   0  0  0  0  0  0  0  0  0  0  0  0
    2.3975    0.0651    3.6187 C   0  0  0  0  0  0  0  0  0  0  0  0
    2.2544   -4.6048    0.4657 C   0  0  0  0  0  0  0  0  0  0  0  0
    1.1050   -3.8833    0.0635 C   0  0  0  0  0  0  0  0  0  0  0  0
   -0.0393   -4.5142   -0.4555 C   0  0  0  0  0  0  0  0  0  0  0  0
   -1.1730   -3.7787   -0.8425 C   0  0  0  0  0  0  0  0  0  0  0  0
   -2.3347   -4.3937   -1.3679 C   0  0  0  0  0  0  0  0  0  0  0  0
   -3.0495   -1.3948   -2.6925 C   0  0  0  0  0  0  0  0  0  0  0  0
   -4.8513    0.4214    0.6319 C   0  0  0  0  0  0  0  0  0  0  0  0
   -4.9185    1.8149    0.7240 C   0  0  0  0  0  0  0  0  0  0  0  0
   -4.3950    2.6665   -0.2766 C   0  0  0  0  0  0  0  0  0  0  0  0
   -3.7867    2.0382   -1.3959 C   0  0  0  0  0  0  0  0  0  0  0  0
   -4.5237    8.0369   -0.1704 H   0  0  0  0  0  0  0  0  0  0  0  0
   -5.5201    6.7574    1.7063 H   0  0  0  0  0  0  0  0  0  0  0  0
   -5.4843    4.3272    1.6981 H   0  0  0  0  0  0  0  0  0  0  0  0
   -3.4919    6.8457   -2.0553 H   0  0  0  0  0  0  0  0  0  0  0  0
   -2.8683    4.8072   -3.1652 H   0  0  0  0  0  0  0  0  0  0  0  0
   -2.2089    2.7875   -4.3431 H   0  0  0  0  0  0  0  0  0  0  0  0
   -2.0997    0.3534   -4.4950 H   0  0  0  0  0  0  0  0  0  0  0  0
   -4.5901   -2.2118    0.2201 H   0  0  0  0  0  0  0  0  0  0  0  0
   -5.4968   -3.8209   -2.5825 H   0  0  0  0  0  0  0  0  0  0  0  0
   -5.4556   -6.2781   -2.7848 H   0  0  0  0  0  0  0  0  0  0  0  0
   -3.4620   -7.5475   -2.1047 H   0  0  0  0  0  0  0  0  0  0  0  0
   -1.2020   -7.6211   -1.2102 H   0  0  0  0  0  0  0  0  0  0  0  0
    1.0744   -7.7250   -0.3115 H   0  0  0  0  0  0  0  0  0  0  0  0
    3.3309   -7.8591    0.5791 H   0  0  0  0  0  0  0  0  0  0  0  0
    5.3405   -6.7762    1.4921 H   0  0  0  0  0  0  0  0  0  0  0  0
    5.4193   -4.3290    1.7737 H   0  0  0  0  0  0  0  0  0  0  0  0
    2.3837   -2.5432    3.0269 H   0  0  0  0  0  0  0  0  0  0  0  0
    4.6980   -2.2009   -0.5683 H   0  0  0  0  0  0  0  0  0  0  0  0
    5.5057    0.0107   -1.3015 H   0  0  0  0  0  0  0  0  0  0  0  0
    5.6654    2.3959   -0.9942 H   0  0  0  0  0  0  0  0  0  0  0  0
    2.7638    4.0727    3.9700 H   0  0  0  0  0  0  0  0  0  0  0  0
    3.4913    6.2719    3.3283 H   0  0  0  0  0  0  0  0  0  0  0  0
    4.6821    7.7794    1.7964 H   0  0  0  0  0  0  0  0  0  0  0  0
    5.8202    6.8617   -0.2073 H   0  0  0  0  0  0  0  0  0  0  0  0
    5.7671    4.4762   -0.6713 H   0  0  0  0  0  0  0  0  0  0  0  0
    1.9931    1.8801    4.6773 H   0  0  0  0  0  0  0  0  0  0  0  0
    1.8464   -0.5328    4.3413 H   0  0  0  0  0  0  0  0  0  0  0  0
    1.0967   -2.7974    0.1526 H   0  0  0  0  0  0  0  0  0  0  0  0
   -1.1468   -2.6953   -0.7276 H   0  0  0  0  0  0  0  0  0  0  0  0
   -2.5787   -1.8696   -3.5525 H   0  0  0  0  0  0  0  0  0  0  0  0
   -5.2710   -0.1780    1.4370 H   0  0  0  0  0  0  0  0  0  0  0  0
   -5.3964    2.2230    1.6101 H   0  0  0  0  0  0  0  0  0  0  0  0
  1  2  4  0
  2  3  4  0
  3  4  4  0
  4  5  4  0
  5  6  4  0
  5  7  4  0
  7  8  4  0
  8  9  4  0
  9 10  4  0
 10 11  4  0
 11 12  4  0
 12 13  4  0
 13 14  4  0
 14 15  4  0
 15 16  1  0
 16 17  4  0
 17 18  4  0
 18 19  4  0
 19 20  4  0
 20 21  4  0
 21 22  4  0
 22 23  4  0
 23 24  4  0
 24 25  4  0
 25 26  4  0
 26 27  4  0
 27 28  4  0
 28 29  1  0
 29 30  4  0
 30 31  4  0
 31 32  4  0
 32 33  4  0
 33 34  4  0
 33 35  4  0
 35 36  4  0
 36 37  4  0
 37 38  4  0
 38 39  4  0
 39 40  4  0
 40 41  4  0
 41 42  4  0
 42 43  4  0
 43 44  4  0
 44 45  4  0
 45 46  4  0
 39 47  4  0
 47 48  4  0
 28 49  4  0
 49 50  4  0
 50 51  4  0
 51 52  4  0
 52 53  4  0
 15 54  4  0
 13 55  4  0
 55 56  4  0
 56 57  4  0
 57 58  4  0
  6  1  4  0
 58  8  4  0
 57  4  4  0
 54 11  4  0
 58 12  4  0
 53 16  4  0
 53 20  4  0
 51 22  4  0
 49 24  4  0
 34 29  4  0
 46 37  4  0
 48 31  4  0
 38 32  4  0
 46 41  4  0
  1 59  1  0
  2 60  1  0
  3 61  1  0
  6 62  1  0
  7 63  1  0
  9 64  1  0
 10 65  1  0
 14 66  1  0
 17 67  1  0
 18 68  1  0
 19 69  1  0
 21 70  1  0
 23 71  1  0
 25 72  1  0
 26 73  1  0
 27 74  1  0
 30 75  1  0
 34 76  1  0
 35 77  1  0
 36 78  1  0
 40 79  1  0
 42 80  1  0
 43 81  1  0
 44 82  1  0
 45 83  1  0
 47 84  1  0
 48 85  1  0
 50 86  1  0
 52 87  1  0
 54 88  1  0
 55 89  1  0
 56 90  1  0
M  END
