
     RDKit          3D

 90103  0  0  0  0  0  0  0  0999 V2000
   -3.7021   -4.9531   -0.0490 C   0  0  0  0  0  0  0  0  0  0  0  0
   -3.7280   -5.0808   -1.4279 C   0  0  0  0  0  0  0  0  0  0  0  0
   -3.7631   -3.9372   -2.2316 C   0  0  0  0  0  0  0  0  0  0  0  0
   -3.7747   -2.6249   -1.6883 C   0  0  0  0  0  0  0  0  0  0  0  0
   -3.7503   -2.5269   -0.2798 C   0  0  0  0  0  0  0  0  0  0  0  0
   -3.7128   -3.6832    0.5200 C   0  0  0  0  0  0  0  0  0  0  0  0
   -3.7635   -1.2696    0.3321 C   0  0  0  0  0  0  0  0  0  0  0  0
   -3.7993   -0.0680   -0.4003 C   0  0  0  0  0  0  0  0  0  0  0  0
   -3.8187   -0.1512   -1.8152 C   0  0  0  0  0  0  0  0  0  0  0  0
   -3.8080   -1.4178   -2.4682 C   0  0  0  0  0  0  0  0  0  0  0  0
   -3.8310   -1.4149   -3.8823 C   0  0  0  0  0  0  0  0  0  0  0  0
   -3.8603   -0.2360   -4.6296 C   0  0  0  0  0  0  0  0  0  0  0  0
   -3.8692    1.0021   -3.9937 C   0  0  0  0  0  0  0  0  0  0  0  0
   -3.8979    2.1905   -4.7387 C   0  0  0  0  0  0  0  0  0  0  0  0
   -3.9081    3.4266   -4.0995 C   0  0  0  0  0  0  0  0  0  0  0  0
   -3.8903    3.4861   -2.7093 C   0  0  0  0  0  0  0  0  0  0  0  0
   -3.8612    2.3109   -1.9441 C   0  0  0  0  0  0  0  0  0  0  0  0
   -3.8496    1.0501   -2.5816 C   0  0  0  0  0  0  0  0  0  0  0  0
   -3.8446    2.3715   -0.5509 C   0  0  0  0  0  0  0  0  0  0  0  0
   -3.8143    1.2065    0.2326 C   0  0  0  0  0  0  0  0  0  0  0  0
   -3.8100    1.3689    1.7034 C   0  0  0  0  0  0  0  0  0  0  0  0
   -5.0503    1.4668    2.3615 C   0  0  0  0  0  0  0  0  0  0  0  0
   -5.1165    1.6247    3.7409 C   0  0  0  0  0  0  0  0  0  0  0  0
   -3.9422    1.6885    4.4854 C   0  0  0  0  0  0  0  0  0  0  0  0
   -2.6868    1.5968    3.8651 C   0  0  0  0  0  0  0  0  0  0  0  0
   -1.5120    1.6616    4.6341 C   0  0  0  0  0  0  0  0  0  0  0  0
   -0.2402    1.5683    4.0463 C   0  0  0  0  0  0  0  0  0  0  0  0
    0.9339    1.6245    4.8139 C   0  0  0  0  0  0  0  0  0  0  0  0
    2.2064    1.5261    4.2249 C   0  0  0  0  0  0  0  0  0  0  0  0
    3.3590    1.5809    5.0233 C   0  0  0  0  0  0  0  0  0  0  0  0
    4.6275    1.4817    4.4592 C   0  0  0  0  0  0  0  0  0  0  0  0
    4.7604    1.3259    3.0841 C   0  0  0  0  0  0  0  0  0  0  0  0
    3.6282    1.2661    2.2499 C   0  0  0  0  0  0  0  0  0  0  0  0
    3.8446    1.1017    0.7945 C   0  0  0  0  0  0  0  0  0  0  0  0
    4.1083    2.2568    0.0401 C   0  0  0  0  0  0  0  0  0  0  0  0
    4.3322    2.1930   -1.3354 C   0  0  0  0  0  0  0  0  0  0  0  0
    4.2914    0.9389   -1.9845 C   0  0  0  0  0  0  0  0  0  0  0  0
    4.5212    0.8868   -3.3779 C   0  0  0  0  0  0  0  0  0  0  0  0
    4.7858    2.0641   -4.0936 C   0  0  0  0  0  0  0  0  0  0  0  0
    4.8231    3.2941   -3.4437 C   0  0  0  0  0  0  0  0  0  0  0  0
    4.5959    3.3579   -2.0719 C   0  0  0  0  0  0  0  0  0  0  0  0
    4.4811   -0.3447   -4.0252 C   0  0  0  0  0  0  0  0  0  0  0  0
    4.2157   -1.5128   -3.3081 C   0  0  0  0  0  0  0  0  0  0  0  0
    3.9797   -1.5115   -1.9140 C   0  0  0  0  0  0  0  0  0  0  0  0
    4.0232   -0.2520   -1.2484 C   0  0  0  0  0  0  0  0  0  0  0  0
    3.8012   -0.1659    0.1488 C   0  0  0  0  0  0  0  0  0  0  0  0
    3.5395   -1.3577    0.8509 C   0  0  0  0  0  0  0  0  0  0  0  0
    3.4837   -2.6067    0.2250 C   0  0  0  0  0  0  0  0  0  0  0  0
    3.2059   -3.7513    0.9933 C   0  0  0  0  0  0  0  0  0  0  0  0
    3.1407   -5.0127    0.4096 C   0  0  0  0  0  0  0  0  0  0  0  0
    3.3539   -5.1439   -0.9527 C   0  0  0  0  0  0  0  0  0  0  0  0
    3.6294   -4.0114   -1.7251 C   0  0  0  0  0  0  0  0  0  0  0  0
    3.7032   -2.7076   -1.1661 C   0  0  0  0  0  0  0  0  0  0  0  0
    2.3266    1.3695    2.8235 C   0  0  0  0  0  0  0  0  0  0  0  0
    1.1325    1.3190    2.0659 C   0  0  0  0  0  0  0  0  0  0  0  0
   -0.1400    1.4120    2.6566 C   0  0  0  0  0  0  0  0  0  0  0  0
   -1.3143    1.3484    1.8864 C   0  0  0  0  0  0  0  0  0  0  0  0
   -2.6043    1.4366    2.4614 C   0  0  0  0  0  0  0  0  0  0  0  0
   -3.6733   -5.8352    0.5842 H   0  0  0  0  0  0  0  0  0  0  0  0
   -3.7204   -6.0662   -1.8859 H   0  0  0  0  0  0  0  0  0  0  0  0
   -3.7812   -4.0969   -3.3055 H   0  0  0  0  0  0  0  0  0  0  0  0
   -3.6908   -3.6000    1.6053 H   0  0  0  0  0  0  0  0  0  0  0  0
   -3.7425   -1.2295    1.4209 H   0  0  0  0  0  0  0  0  0  0  0  0
   -3.8261   -2.3445   -4.4442 H   0  0  0  0  0  0  0  0  0  0  0  0
   -3.8761   -0.3029   -5.7152 H   0  0  0  0  0  0  0  0  0  0  0  0
   -3.9129    2.1606   -5.8258 H   0  0  0  0  0  0  0  0  0  0  0  0
   -3.9297    4.3425   -4.6832 H   0  0  0  0  0  0  0  0  0  0  0  0
   -3.8985    4.4601   -2.2249 H   0  0  0  0  0  0  0  0  0  0  0  0
   -3.8537    3.3404   -0.0524 H   0  0  0  0  0  0  0  0  0  0  0  0
   -5.9746    1.4159    1.7881 H   0  0  0  0  0  0  0  0  0  0  0  0
   -6.0818    1.6978    4.2347 H   0  0  0  0  0  0  0  0  0  0  0  0
   -4.0154    1.8111    5.5640 H   0  0  0  0  0  0  0  0  0  0  0  0
   -1.5881    1.7844    5.7133 H   0  0  0  0  0  0  0  0  0  0  0  0
    0.8549    1.7450    5.8931 H   0  0  0  0  0  0  0  0  0  0  0  0
    3.2762    1.7018    6.1014 H   0  0  0  0  0  0  0  0  0  0  0  0
    5.5112    1.5246    5.0903 H   0  0  0  0  0  0  0  0  0  0  0  0
    5.7571    1.2454    2.6533 H   0  0  0  0  0  0  0  0  0  0  0  0
    4.1335    3.2211    0.5467 H   0  0  0  0  0  0  0  0  0  0  0  0
    4.9650    2.0304   -5.1660 H   0  0  0  0  0  0  0  0  0  0  0  0
    5.0290    4.2015   -4.0048 H   0  0  0  0  0  0  0  0  0  0  0  0
    4.6264    4.3271   -1.5787 H   0  0  0  0  0  0  0  0  0  0  0  0
    4.6546   -0.4147   -5.0966 H   0  0  0  0  0  0  0  0  0  0  0  0
    4.1990   -2.4375   -3.8778 H   0  0  0  0  0  0  0  0  0  0  0  0
    3.3666   -1.3160    1.9259 H   0  0  0  0  0  0  0  0  0  0  0  0
    3.0334   -3.6654    2.0647 H   0  0  0  0  0  0  0  0  0  0  0  0
    2.9228   -5.8853    1.0185 H   0  0  0  0  0  0  0  0  0  0  0  0
    3.3053   -6.1230   -1.4218 H   0  0  0  0  0  0  0  0  0  0  0  0
    3.7849   -4.1724   -2.7877 H   0  0  0  0  0  0  0  0  0  0  0  0
    1.1901    1.1982    0.9846 H   0  0  0  0  0  0  0  0  0  0  0  0
   -1.2161    1.2195    0.8088 H   0  0  0  0  0  0  0  0  0  0  0  0
  1  2  4  0
  2  3  4  0
  3  4  4  0
  4  5  4  0
  5  6  4  0
  5  7  4  0
  7  8  4  0
  8  9  4  0
  9 10  4  0
 10 11  4  0
 11 12  4  0
 12 13  4  0
 13 14  4  0
 14 15  4  0
 15 16  4  0
 16 17  4  0
 17 18  4  0
 17 19  4  0
 19 20  4  0
 20 21  1  0
 21 22  4  0
 22 23  4  0
 23 24  4  0
 24 25  4  0
 25 26  4  0
 26 27  4  0
 27 28  4  0
 28 29  4  0
 29 30  4  0
 30 31  4  0
 31 32  4  0
 32 33  4  0
 33 34  1  0
 34 35  4  0
 35 36  4  0
 36 37  4  0
 37 38  4  0
 38 39  4  0
 39 40  4  0
 40 41  4  0
 38 42  4  0
 42 43  4  0
 43 44  4  0
 44 45  4  0
 45 46  4  0
 46 47  4  0
 47 48  4  0
 48 49  4  0
 49 50  4  0
 50 51  4  0
 51 52  4  0
 52 53  4  0
 33 54  4  0
 54 55  4  0
 55 56  4  0
 56 57  4  0
 57 58  4  0
  6  1  4  0
 20  8  4  0
 58 21  4  0
 10  4  4  0
 18 13  4  0
 58 25  4  0
 18  9  4  0
 56 27  4  0
 54 29  4  0
 46 34  4  0
 53 48  4  0
 41 36  4  0
 53 44  4  0
 45 37  4  0
  1 59  1  0
  2 60  1  0
  3 61  1  0
  6 62  1  0
  7 63  1  0
 11 64  1  0
 12 65  1  0
 14 66  1  0
 15 67  1  0
 16 68  1  0
 19 69  1  0
 22 70  1  0
 23 71  1  0
 24 72  1  0
 26 73  1  0
 28 74  1  0
 30 75  1  0
 31 76  1  0
 32 77  1  0
 35 78  1  0
 39 79  1  0
 40 80  1  0
 41 81  1  0
 42 82  1  0
 43 83  1  0
 47 84  1  0
 49 85  1  0
 50 86  1  0
 51 87  1  0
 52 88  1  0
 55 89  1  0
 57 90  1  0
M  END
