
     RDKit          3D

 90103  0  0  0  0  0  0  0  0999 V2000
    4.3790   -6.8906   -3.3658 C   0  0  0  0  0  0  0  0  0  0  0  0
    4.7239   -5.9488   -4.3313 C   0  0  0  0  0  0  0  0  0  0  0  0
    4.7295   -4.5801   -4.0235 C   0  0  0  0  0  0  0  0  0  0  0  0
    4.3854   -4.1442   -2.7187 C   0  0  0  0  0  0  0  0  0  0  0  0
    4.0363   -5.1087   -1.7543 C   0  0  0  0  0  0  0  0  0  0  0  0
    4.0353   -6.4726   -2.0837 C   0  0  0  0  0  0  0  0  0  0  0  0
    3.6893   -4.6809   -0.4800 C   0  0  0  0  0  0  0  0  0  0  0  0
    3.6972   -3.3181   -0.1597 C   0  0  0  0  0  0  0  0  0  0  0  0
    4.0531   -2.2938   -1.0720 C   0  0  0  0  0  0  0  0  0  0  0  0
    4.3873   -2.7557   -2.3810 C   0  0  0  0  0  0  0  0  0  0  0  0
    4.7295   -1.8366   -3.3908 C   0  0  0  0  0  0  0  0  0  0  0  0
    4.7291   -0.4749   -3.1090 C   0  0  0  0  0  0  0  0  0  0  0  0
    4.4177    0.0194   -1.8415 C   0  0  0  0  0  0  0  0  0  0  0  0
    4.4557    1.4148   -1.6899 C   0  0  0  0  0  0  0  0  0  0  0  0
    4.1801    2.0191   -0.4769 C   0  0  0  0  0  0  0  0  0  0  0  0
    3.8747    1.2218    0.6084 C   0  0  0  0  0  0  0  0  0  0  0  0
    3.8257   -0.1898    0.5010 C   0  0  0  0  0  0  0  0  0  0  0  0
    3.5374   -0.8823    1.7756 C   0  0  0  0  0  0  0  0  0  0  0  0
    4.6294   -1.2860    2.5690 C   0  0  0  0  0  0  0  0  0  0  0  0
    4.4304   -1.9009    3.7998 C   0  0  0  0  0  0  0  0  0  0  0  0
    3.1357   -2.1116    4.2652 C   0  0  0  0  0  0  0  0  0  0  0  0
    2.0221   -1.7155    3.5087 C   0  0  0  0  0  0  0  0  0  0  0  0
    0.7231   -1.9355    3.9973 C   0  0  0  0  0  0  0  0  0  0  0  0
   -0.4136   -1.5587    3.2648 C   0  0  0  0  0  0  0  0  0  0  0  0
   -1.7118   -1.7748    3.7541 C   0  0  0  0  0  0  0  0  0  0  0  0
   -2.8495   -1.4017    3.0182 C   0  0  0  0  0  0  0  0  0  0  0  0
   -4.1333   -1.6256    3.5400 C   0  0  0  0  0  0  0  0  0  0  0  0
   -5.2718   -1.2692    2.8227 C   0  0  0  0  0  0  0  0  0  0  0  0
   -5.1413   -0.6841    1.5685 C   0  0  0  0  0  0  0  0  0  0  0  0
   -3.8702   -0.4309    1.0163 C   0  0  0  0  0  0  0  0  0  0  0  0
   -3.8063    0.1524   -0.3408 C   0  0  0  0  0  0  0  0  0  0  0  0
   -3.8701    1.5734   -0.6360 C   0  0  0  0  0  0  0  0  0  0  0  0
   -3.8589    1.8954   -2.0249 C   0  0  0  0  0  0  0  0  0  0  0  0
   -3.7597    0.9116   -3.0220 C   0  0  0  0  0  0  0  0  0  0  0  0
   -3.6790   -0.4326   -2.7077 C   0  0  0  0  0  0  0  0  0  0  0  0
   -3.7095   -0.8067   -1.3789 C   0  0  0  0  0  0  0  0  0  0  0  0
   -3.9515    3.2166   -2.4646 C   0  0  0  0  0  0  0  0  0  0  0  0
   -4.0572    4.2837   -1.5793 C   0  0  0  0  0  0  0  0  0  0  0  0
   -4.1641    5.5903   -2.0770 C   0  0  0  0  0  0  0  0  0  0  0  0
   -4.2660    6.6789   -1.2159 C   0  0  0  0  0  0  0  0  0  0  0  0
   -4.2566    6.4846    0.1652 C   0  0  0  0  0  0  0  0  0  0  0  0
   -4.1453    5.1684    0.6803 C   0  0  0  0  0  0  0  0  0  0  0  0
   -4.1265    4.9892    2.0766 C   0  0  0  0  0  0  0  0  0  0  0  0
   -4.2216    6.0954    2.9349 C   0  0  0  0  0  0  0  0  0  0  0  0
   -4.3364    7.3831    2.4193 C   0  0  0  0  0  0  0  0  0  0  0  0
   -4.3532    7.5764    1.0409 C   0  0  0  0  0  0  0  0  0  0  0  0
   -4.0057    3.7012    2.5802 C   0  0  0  0  0  0  0  0  0  0  0  0
   -3.9165    2.6039    1.7154 C   0  0  0  0  0  0  0  0  0  0  0  0
   -3.9466    2.7060    0.3020 C   0  0  0  0  0  0  0  0  0  0  0  0
   -4.0503    4.0410   -0.1928 C   0  0  0  0  0  0  0  0  0  0  0  0
   -2.7005   -0.7978    1.7469 C   0  0  0  0  0  0  0  0  0  0  0  0
   -1.3848   -0.5812    1.2734 C   0  0  0  0  0  0  0  0  0  0  0  0
   -0.2477   -0.9508    2.0122 C   0  0  0  0  0  0  0  0  0  0  0  0
    1.0515   -0.7260    1.5242 C   0  0  0  0  0  0  0  0  0  0  0  0
    2.2082   -1.0941    2.2506 C   0  0  0  0  0  0  0  0  0  0  0  0
    4.0855   -0.8544   -0.7647 C   0  0  0  0  0  0  0  0  0  0  0  0
    5.0657   -2.2793   -4.6784 C   0  0  0  0  0  0  0  0  0  0  0  0
    5.0694   -3.6355   -4.9920 C   0  0  0  0  0  0  0  0  0  0  0  0
    4.3759   -7.9486   -3.6119 H   0  0  0  0  0  0  0  0  0  0  0  0
    4.9872   -6.2911   -5.3293 H   0  0  0  0  0  0  0  0  0  0  0  0
    3.7647   -7.2191   -1.3403 H   0  0  0  0  0  0  0  0  0  0  0  0
    3.4018   -5.3949    0.2886 H   0  0  0  0  0  0  0  0  0  0  0  0
    3.3937   -3.0938    0.8530 H   0  0  0  0  0  0  0  0  0  0  0  0
    4.9844    0.2232   -3.9059 H   0  0  0  0  0  0  0  0  0  0  0  0
    4.7066    2.0573   -2.5328 H   0  0  0  0  0  0  0  0  0  0  0  0
    4.2131    3.0997   -0.3765 H   0  0  0  0  0  0  0  0  0  0  0  0
    3.6717    1.6982    1.5673 H   0  0  0  0  0  0  0  0  0  0  0  0
    5.6460   -1.1189    2.2166 H   0  0  0  0  0  0  0  0  0  0  0  0
    5.2837   -2.2129    4.3957 H   0  0  0  0  0  0  0  0  0  0  0  0
    3.0014   -2.5918    5.2325 H   0  0  0  0  0  0  0  0  0  0  0  0
    0.5930   -2.4115    4.9678 H   0  0  0  0  0  0  0  0  0  0  0  0
   -1.8384   -2.2434    4.7286 H   0  0  0  0  0  0  0  0  0  0  0  0
   -4.2570   -2.0850    4.5186 H   0  0  0  0  0  0  0  0  0  0  0  0
   -6.2593   -1.4499    3.2384 H   0  0  0  0  0  0  0  0  0  0  0  0
   -6.0368   -0.4151    1.0107 H   0  0  0  0  0  0  0  0  0  0  0  0
   -3.7453    1.1893   -4.0751 H   0  0  0  0  0  0  0  0  0  0  0  0
   -3.6017   -1.1811   -3.4906 H   0  0  0  0  0  0  0  0  0  0  0  0
   -3.6595   -1.8671   -1.1327 H   0  0  0  0  0  0  0  0  0  0  0  0
   -3.9466    3.4247   -3.5344 H   0  0  0  0  0  0  0  0  0  0  0  0
   -4.1682    5.7737   -3.1493 H   0  0  0  0  0  0  0  0  0  0  0  0
   -4.3483    7.6782   -1.6362 H   0  0  0  0  0  0  0  0  0  0  0  0
   -4.2058    5.9588    4.0139 H   0  0  0  0  0  0  0  0  0  0  0  0
   -4.4101    8.2340    3.0907 H   0  0  0  0  0  0  0  0  0  0  0  0
   -4.4409    8.5886    0.6532 H   0  0  0  0  0  0  0  0  0  0  0  0
   -3.9729    3.5229    3.6528 H   0  0  0  0  0  0  0  0  0  0  0  0
   -3.8044    1.6503    2.2117 H   0  0  0  0  0  0  0  0  0  0  0  0
   -1.2377   -0.1061    0.3040 H   0  0  0  0  0  0  0  0  0  0  0  0
    1.1615   -0.2560    0.5474 H   0  0  0  0  0  0  0  0  0  0  0  0
    5.3301   -1.5654   -5.4556 H   0  0  0  0  0  0  0  0  0  0  0  0
    5.3364   -3.9436   -6.0000 H   0  0  0  0  0  0  0  0  0  0  0  0
  1  2  4  0
  2  3  4  0
  3  4  4  0
  4  5  4  0
  5  6  4  0
  5  7  4  0
  7  8  4  0
  8  9  4  0
  9 10  4  0
 10 11  4  0
 11 12  4  0
 12 13  4  0
 13 14  4  0
 14 15  4  0
 15 16  4  0
 16 17  4  0
 17 18  1  0
 18 19  4  0
 19 20  4  0
 20 21  4  0
 21 22  4  0
 22 23  4  0
 23 24  4  0
 24 25  4  0
 25 26  4  0
 26 27  4  0
 27 28  4  0
 28 29  4  0
 29 30  4  0
 30 31  1  0
 31 32  4  0
 32 33  4  0
 33 34  4  0
 34 35  4  0
 35 36  4  0
 33 37  4  0
 37 38  4  0
 38 39  4  0
 39 40  4  0
 40 41  4  0
 41 42  4  0
 42 43  4  0
 43 44  4  0
 44 45  4  0
 45 46  4  0
 43 47  4  0
 47 48  4  0
 48 49  4  0
 49 50  4  0
 30 51  4  0
 51 52  4  0
 52 53  4  0
 53 54  4  0
 54 55  4  0
 17 56  4  0
 11 57  4  0
 57 58  4  0
  6  1  4  0
 56  9  4  0
 58  3  4  0
 10  4  4  0
 56 13  4  0
 55 18  4  0
 55 22  4  0
 53 24  4  0
 51 26  4  0
 36 31  4  0
 50 38  4  0
 49 32  4  0
 46 41  4  0
 50 42  4  0
  1 59  1  0
  2 60  1  0
  6 61  1  0
  7 62  1  0
  8 63  1  0
 12 64  1  0
 14 65  1  0
 15 66  1  0
 16 67  1  0
 19 68  1  0
 20 69  1  0
 21 70  1  0
 23 71  1  0
 25 72  1  0
 27 73  1  0
 28 74  1  0
 29 75  1  0
 34 76  1  0
 35 77  1  0
 36 78  1  0
 37 79  1  0
 39 80  1  0
 40 81  1  0
 44 82  1  0
 45 83  1  0
 46 84  1  0
 47 85  1  0
 48 86  1  0
 52 87  1  0
 54 88  1  0
 57 89  1  0
 58 90  1  0
M  END
