
     RDKit          3D

 90103  0  0  0  0  0  0  0  0999 V2000
    3.5665   -3.8085    4.7258 C   0  0  0  0  0  0  0  0  0  0  0  0
    3.7930   -4.6369    3.6290 C   0  0  0  0  0  0  0  0  0  0  0  0
    3.8533   -4.1049    2.3324 C   0  0  0  0  0  0  0  0  0  0  0  0
    3.6829   -2.7129    2.1354 C   0  0  0  0  0  0  0  0  0  0  0  0
    3.4534   -1.8811    3.2523 C   0  0  0  0  0  0  0  0  0  0  0  0
    3.3975   -2.4386    4.5387 C   0  0  0  0  0  0  0  0  0  0  0  0
    3.2846   -0.5116    3.0521 C   0  0  0  0  0  0  0  0  0  0  0  0
    3.3427    0.0324    1.7653 C   0  0  0  0  0  0  0  0  0  0  0  0
    3.5725   -0.7610    0.6168 C   0  0  0  0  0  0  0  0  0  0  0  0
    3.7412   -2.1557    0.8267 C   0  0  0  0  0  0  0  0  0  0  0  0
    3.9700   -3.0155   -0.2693 C   0  0  0  0  0  0  0  0  0  0  0  0
    4.0280   -2.4874   -1.5617 C   0  0  0  0  0  0  0  0  0  0  0  0
    3.8664   -1.1191   -1.8007 C   0  0  0  0  0  0  0  0  0  0  0  0
    3.9305   -0.6381   -3.1184 C   0  0  0  0  0  0  0  0  0  0  0  0
    3.7741    0.7177   -3.3991 C   0  0  0  0  0  0  0  0  0  0  0  0
    3.5498    1.6261   -2.3660 C   0  0  0  0  0  0  0  0  0  0  0  0
    3.3808    3.0615   -2.6470 C   0  0  0  0  0  0  0  0  0  0  0  0
    4.5342    3.8329   -2.8797 C   0  0  0  0  0  0  0  0  0  0  0  0
    4.4435    5.1968   -3.1356 C   0  0  0  0  0  0  0  0  0  0  0  0
    3.1957    5.8129   -3.1610 C   0  0  0  0  0  0  0  0  0  0  0  0
    2.0221    5.0775   -2.9357 C   0  0  0  0  0  0  0  0  0  0  0  0
    0.7704    5.7174   -2.9629 C   0  0  0  0  0  0  0  0  0  0  0  0
   -0.4239    5.0128   -2.7413 C   0  0  0  0  0  0  0  0  0  0  0  0
   -1.6752    5.6501   -2.7613 C   0  0  0  0  0  0  0  0  0  0  0  0
   -2.8687    4.9428   -2.5329 C   0  0  0  0  0  0  0  0  0  0  0  0
   -4.1012    5.6129   -2.5596 C   0  0  0  0  0  0  0  0  0  0  0  0
   -5.2928    4.9298   -2.3355 C   0  0  0  0  0  0  0  0  0  0  0  0
   -5.2667    3.5633   -2.0777 C   0  0  0  0  0  0  0  0  0  0  0  0
   -4.0511    2.8551   -2.0402 C   0  0  0  0  0  0  0  0  0  0  0  0
   -4.0948    1.4109   -1.7497 C   0  0  0  0  0  0  0  0  0  0  0  0
   -4.5207    0.5012   -2.7164 C   0  0  0  0  0  0  0  0  0  0  0  0
   -4.5498   -0.8628   -2.4323 C   0  0  0  0  0  0  0  0  0  0  0  0
   -4.1528   -1.3524   -1.1776 C   0  0  0  0  0  0  0  0  0  0  0  0
   -4.1930   -2.7291   -0.9347 C   0  0  0  0  0  0  0  0  0  0  0  0
   -3.8031   -3.2665    0.2949 C   0  0  0  0  0  0  0  0  0  0  0  0
   -3.8535   -4.6505    0.5121 C   0  0  0  0  0  0  0  0  0  0  0  0
   -3.4639   -5.1982    1.7337 C   0  0  0  0  0  0  0  0  0  0  0  0
   -3.0132   -4.3740    2.7686 C   0  0  0  0  0  0  0  0  0  0  0  0
   -2.9568   -2.9735    2.5653 C   0  0  0  0  0  0  0  0  0  0  0  0
   -2.5003   -2.1427    3.6110 C   0  0  0  0  0  0  0  0  0  0  0  0
   -2.1101   -2.7093    4.8339 C   0  0  0  0  0  0  0  0  0  0  0  0
   -2.1682   -4.0875    5.0274 C   0  0  0  0  0  0  0  0  0  0  0  0
   -2.6171   -4.9150    4.0006 C   0  0  0  0  0  0  0  0  0  0  0  0
   -2.4449   -0.7649    3.4042 C   0  0  0  0  0  0  0  0  0  0  0  0
   -2.8363   -0.2118    2.1809 C   0  0  0  0  0  0  0  0  0  0  0  0
   -3.3027   -1.0038    1.1056 C   0  0  0  0  0  0  0  0  0  0  0  0
   -3.3545   -2.4071    1.3211 C   0  0  0  0  0  0  0  0  0  0  0  0
   -3.7127   -0.4664   -0.1656 C   0  0  0  0  0  0  0  0  0  0  0  0
   -3.7060    0.9162   -0.4908 C   0  0  0  0  0  0  0  0  0  0  0  0
   -2.8282    3.5512   -2.2760 C   0  0  0  0  0  0  0  0  0  0  0  0
   -1.5586    2.9252   -2.2733 C   0  0  0  0  0  0  0  0  0  0  0  0
   -0.3654    3.6345   -2.4944 C   0  0  0  0  0  0  0  0  0  0  0  0
    0.8851    2.9929   -2.4702 C   0  0  0  0  0  0  0  0  0  0  0  0
    2.1001    3.6878   -2.6795 C   0  0  0  0  0  0  0  0  0  0  0  0
    3.4902    1.1408   -1.0468 C   0  0  0  0  0  0  0  0  0  0  0  0
    3.6394   -0.2330   -0.7206 C   0  0  0  0  0  0  0  0  0  0  0  0
    4.1366   -4.3909   -0.0578 C   0  0  0  0  0  0  0  0  0  0  0  0
    4.0794   -4.9298    1.2269 C   0  0  0  0  0  0  0  0  0  0  0  0
    3.5213   -4.2305    5.7262 H   0  0  0  0  0  0  0  0  0  0  0  0
    3.9222   -5.7042    3.7939 H   0  0  0  0  0  0  0  0  0  0  0  0
    3.2210   -1.8067    5.4063 H   0  0  0  0  0  0  0  0  0  0  0  0
    3.1048    0.1528    3.8944 H   0  0  0  0  0  0  0  0  0  0  0  0
    3.1997    1.1064    1.6837 H   0  0  0  0  0  0  0  0  0  0  0  0
    4.2032   -3.1583   -2.4015 H   0  0  0  0  0  0  0  0  0  0  0  0
    4.1012   -1.3220   -3.9477 H   0  0  0  0  0  0  0  0  0  0  0  0
    3.8211    1.0604   -4.4303 H   0  0  0  0  0  0  0  0  0  0  0  0
    5.5159    3.3629   -2.8536 H   0  0  0  0  0  0  0  0  0  0  0  0
    5.3439    5.7795   -3.3109 H   0  0  0  0  0  0  0  0  0  0  0  0
    3.1457    6.8816   -3.3594 H   0  0  0  0  0  0  0  0  0  0  0  0
    0.7241    6.7874   -3.1586 H   0  0  0  0  0  0  0  0  0  0  0  0
   -1.7198    6.7205   -2.9566 H   0  0  0  0  0  0  0  0  0  0  0  0
   -4.1425    6.6822   -2.7574 H   0  0  0  0  0  0  0  0  0  0  0  0
   -6.2401    5.4622   -2.3587 H   0  0  0  0  0  0  0  0  0  0  0  0
   -6.2050    3.0417   -1.8954 H   0  0  0  0  0  0  0  0  0  0  0  0
   -4.8250    0.8489   -3.7012 H   0  0  0  0  0  0  0  0  0  0  0  0
   -4.8839   -1.5463   -3.2106 H   0  0  0  0  0  0  0  0  0  0  0  0
   -4.5341   -3.3997   -1.7220 H   0  0  0  0  0  0  0  0  0  0  0  0
   -4.1991   -5.3205   -0.2725 H   0  0  0  0  0  0  0  0  0  0  0  0
   -3.5159   -6.2765    1.8678 H   0  0  0  0  0  0  0  0  0  0  0  0
   -1.7569   -2.0786    5.6468 H   0  0  0  0  0  0  0  0  0  0  0  0
   -1.8635   -4.5167    5.9781 H   0  0  0  0  0  0  0  0  0  0  0  0
   -2.6553   -5.9889    4.1698 H   0  0  0  0  0  0  0  0  0  0  0  0
   -2.0955   -0.1005    4.1915 H   0  0  0  0  0  0  0  0  0  0  0  0
   -2.7626    0.8683    2.0889 H   0  0  0  0  0  0  0  0  0  0  0  0
   -3.3826    1.6486    0.2453 H   0  0  0  0  0  0  0  0  0  0  0  0
   -1.4915    1.8529   -2.0932 H   0  0  0  0  0  0  0  0  0  0  0  0
    0.9088    1.9202   -2.2808 H   0  0  0  0  0  0  0  0  0  0  0  0
    3.3163    1.8733   -0.2621 H   0  0  0  0  0  0  0  0  0  0  0  0
    4.3135   -5.0609   -0.8966 H   0  0  0  0  0  0  0  0  0  0  0  0
    4.2130   -6.0016    1.3543 H   0  0  0  0  0  0  0  0  0  0  0  0
  1  2  4  0
  2  3  4  0
  3  4  4  0
  4  5  4  0
  5  6  4  0
  5  7  4  0
  7  8  4  0
  8  9  4  0
  9 10  4  0
 10 11  4  0
 11 12  4  0
 12 13  4  0
 13 14  4  0
 14 15  4  0
 15 16  4  0
 16 17  1  0
 17 18  4  0
 18 19  4  0
 19 20  4  0
 20 21  4  0
 21 22  4  0
 22 23  4  0
 23 24  4  0
 24 25  4  0
 25 26  4  0
 26 27  4  0
 27 28  4  0
 28 29  4  0
 29 30  1  0
 30 31  4  0
 31 32  4  0
 32 33  4  0
 33 34  4  0
 34 35  4  0
 35 36  4  0
 36 37  4  0
 37 38  4  0
 38 39  4  0
 39 40  4  0
 40 41  4  0
 41 42  4  0
 42 43  4  0
 40 44  4  0
 44 45  4  0
 45 46  4  0
 46 47  4  0
 46 48  4  0
 48 49  4  0
 29 50  4  0
 50 51  4  0
 51 52  4  0
 52 53  4  0
 53 54  4  0
 16 55  4  0
 55 56  4  0
 11 57  4  0
 57 58  4  0
  6  1  4  0
 56  9  4  0
 58  3  4  0
 10  4  4  0
 56 13  4  0
 54 17  4  0
 54 21  4  0
 52 23  4  0
 50 25  4  0
 49 30  4  0
 48 33  4  0
 47 35  4  0
 43 38  4  0
 47 39  4  0
  1 59  1  0
  2 60  1  0
  6 61  1  0
  7 62  1  0
  8 63  1  0
 12 64  1  0
 14 65  1  0
 15 66  1  0
 18 67  1  0
 19 68  1  0
 20 69  1  0
 22 70  1  0
 24 71  1  0
 26 72  1  0
 27 73  1  0
 28 74  1  0
 31 75  1  0
 32 76  1  0
 34 77  1  0
 36 78  1  0
 37 79  1  0
 41 80  1  0
 42 81  1  0
 43 82  1  0
 44 83  1  0
 45 84  1  0
 49 85  1  0
 51 86  1  0
 53 87  1  0
 55 88  1  0
 57 89  1  0
 58 90  1  0
M  END
