
     RDKit          3D

 90103  0  0  0  0  0  0  0  0999 V2000
   -3.9467    3.0044    2.6729 C   0  0  0  0  0  0  0  0  0  0  0  0
   -3.8806    1.7565    3.2566 C   0  0  0  0  0  0  0  0  0  0  0  0
   -3.8611    0.6263    2.4435 C   0  0  0  0  0  0  0  0  0  0  0  0
   -3.9050    0.7000    1.0251 C   0  0  0  0  0  0  0  0  0  0  0  0
   -3.9658    1.9803    0.4174 C   0  0  0  0  0  0  0  0  0  0  0  0
   -3.9876    3.1101    1.2819 C   0  0  0  0  0  0  0  0  0  0  0  0
   -4.0009    2.0877   -1.0154 C   0  0  0  0  0  0  0  0  0  0  0  0
   -3.9749    0.9157   -1.8173 C   0  0  0  0  0  0  0  0  0  0  0  0
   -4.0069    1.0181   -3.2445 C   0  0  0  0  0  0  0  0  0  0  0  0
   -3.9802   -0.1399   -4.0563 C   0  0  0  0  0  0  0  0  0  0  0  0
   -4.0117   -0.0258   -5.4544 C   0  0  0  0  0  0  0  0  0  0  0  0
   -4.0697    1.2247   -6.0618 C   0  0  0  0  0  0  0  0  0  0  0  0
   -4.0965    2.3726   -5.2759 C   0  0  0  0  0  0  0  0  0  0  0  0
   -4.0653    2.2802   -3.8758 C   0  0  0  0  0  0  0  0  0  0  0  0
   -4.0911    3.4260   -3.0896 C   0  0  0  0  0  0  0  0  0  0  0  0
   -4.0595    3.3278   -1.6973 C   0  0  0  0  0  0  0  0  0  0  0  0
   -3.9215   -1.3902   -3.4503 C   0  0  0  0  0  0  0  0  0  0  0  0
   -3.8904   -1.4954   -2.0608 C   0  0  0  0  0  0  0  0  0  0  0  0
   -3.9172   -0.3627   -1.2129 C   0  0  0  0  0  0  0  0  0  0  0  0
   -3.8852   -0.4697    0.2087 C   0  0  0  0  0  0  0  0  0  0  0  0
   -3.8415   -1.8169    0.8444 C   0  0  0  0  0  0  0  0  0  0  0  0
   -5.0643   -2.4534    1.1335 C   0  0  0  0  0  0  0  0  0  0  0  0
   -5.0925   -3.7124    1.7218 C   0  0  0  0  0  0  0  0  0  0  0  0
   -3.8982   -4.3564    2.0317 C   0  0  0  0  0  0  0  0  0  0  0  0
   -2.6602   -3.7539    1.7604 C   0  0  0  0  0  0  0  0  0  0  0  0
   -1.4656   -4.4206    2.0811 C   0  0  0  0  0  0  0  0  0  0  0  0
   -0.2101   -3.8471    1.8247 C   0  0  0  0  0  0  0  0  0  0  0  0
    0.9835   -4.5141    2.1424 C   0  0  0  0  0  0  0  0  0  0  0  0
    2.2403   -3.9409    1.8849 C   0  0  0  0  0  0  0  0  0  0  0  0
    3.4133   -4.6386    2.2121 C   0  0  0  0  0  0  0  0  0  0  0  0
    4.6674   -4.0887    1.9638 C   0  0  0  0  0  0  0  0  0  0  0  0
    4.7650   -2.8292    1.3839 C   0  0  0  0  0  0  0  0  0  0  0  0
    3.6108   -2.0968    1.0435 C   0  0  0  0  0  0  0  0  0  0  0  0
    3.7921   -0.7494    0.4324 C   0  0  0  0  0  0  0  0  0  0  0  0
    3.9193    0.3940    1.2748 C   0  0  0  0  0  0  0  0  0  0  0  0
    3.8483    0.3090    2.6855 C   0  0  0  0  0  0  0  0  0  0  0  0
    3.9790    1.4254    3.5094 C   0  0  0  0  0  0  0  0  0  0  0  0
    4.1884    2.6834    2.9553 C   0  0  0  0  0  0  0  0  0  0  0  0
    4.2602    2.8130    1.5486 C   0  0  0  0  0  0  0  0  0  0  0  0
    4.4705    4.0982    1.0019 C   0  0  0  0  0  0  0  0  0  0  0  0
    4.6061    5.2134    1.8432 C   0  0  0  0  0  0  0  0  0  0  0  0
    4.5343    5.0705    3.2255 C   0  0  0  0  0  0  0  0  0  0  0  0
    4.3255    3.8112    3.7788 C   0  0  0  0  0  0  0  0  0  0  0  0
    4.5410    4.2395   -0.3790 C   0  0  0  0  0  0  0  0  0  0  0  0
    4.4045    3.1261   -1.2105 C   0  0  0  0  0  0  0  0  0  0  0  0
    4.1932    1.8164   -0.7132 C   0  0  0  0  0  0  0  0  0  0  0  0
    4.1233    1.6701    0.6978 C   0  0  0  0  0  0  0  0  0  0  0  0
    4.0520    0.6660   -1.5632 C   0  0  0  0  0  0  0  0  0  0  0  0
    4.1019    0.7389   -2.9831 C   0  0  0  0  0  0  0  0  0  0  0  0
    3.9661   -0.3792   -3.8073 C   0  0  0  0  0  0  0  0  0  0  0  0
    3.7738   -1.6214   -3.2392 C   0  0  0  0  0  0  0  0  0  0  0  0
    3.7193   -1.7334   -1.8524 C   0  0  0  0  0  0  0  0  0  0  0  0
    3.8536   -0.6149   -0.9863 C   0  0  0  0  0  0  0  0  0  0  0  0
    2.3234   -2.6575    1.2941 C   0  0  0  0  0  0  0  0  0  0  0  0
    1.1104   -1.9996    0.9815 C   0  0  0  0  0  0  0  0  0  0  0  0
   -0.1464   -2.5763    1.2356 C   0  0  0  0  0  0  0  0  0  0  0  0
   -1.3411   -1.9097    0.9123 C   0  0  0  0  0  0  0  0  0  0  0  0
   -2.6151   -2.4724    1.1621 C   0  0  0  0  0  0  0  0  0  0  0  0
   -3.9626    3.8991    3.2891 H   0  0  0  0  0  0  0  0  0  0  0  0
   -3.8403    1.6533    4.3372 H   0  0  0  0  0  0  0  0  0  0  0  0
   -3.8013   -0.3375    2.9464 H   0  0  0  0  0  0  0  0  0  0  0  0
   -4.0352    4.1193    0.8839 H   0  0  0  0  0  0  0  0  0  0  0  0
   -3.9907   -0.9144   -6.0816 H   0  0  0  0  0  0  0  0  0  0  0  0
   -4.0935    1.3042   -7.1452 H   0  0  0  0  0  0  0  0  0  0  0  0
   -4.1415    3.3433   -5.7647 H   0  0  0  0  0  0  0  0  0  0  0  0
   -4.1357    4.4124   -3.5456 H   0  0  0  0  0  0  0  0  0  0  0  0
   -4.0816    4.2678   -1.1540 H   0  0  0  0  0  0  0  0  0  0  0  0
   -3.8978   -2.2992   -4.0468 H   0  0  0  0  0  0  0  0  0  0  0  0
   -3.8397   -2.5003   -1.6445 H   0  0  0  0  0  0  0  0  0  0  0  0
   -6.0036   -1.9571    0.8942 H   0  0  0  0  0  0  0  0  0  0  0  0
   -6.0436   -4.1915    1.9383 H   0  0  0  0  0  0  0  0  0  0  0  0
   -3.9419   -5.3417    2.4915 H   0  0  0  0  0  0  0  0  0  0  0  0
   -1.5125   -5.4070    2.5392 H   0  0  0  0  0  0  0  0  0  0  0  0
    0.9320   -5.5013    2.5987 H   0  0  0  0  0  0  0  0  0  0  0  0
    3.3577   -5.6257    2.6669 H   0  0  0  0  0  0  0  0  0  0  0  0
    5.5676   -4.6395    2.2226 H   0  0  0  0  0  0  0  0  0  0  0  0
    5.7502   -2.4061    1.1942 H   0  0  0  0  0  0  0  0  0  0  0  0
    3.6810   -0.6482    3.1767 H   0  0  0  0  0  0  0  0  0  0  0  0
    3.9113    1.2930    4.5865 H   0  0  0  0  0  0  0  0  0  0  0  0
    4.7688    6.2044    1.4251 H   0  0  0  0  0  0  0  0  0  0  0  0
    4.6388    5.9388    3.8702 H   0  0  0  0  0  0  0  0  0  0  0  0
    4.2701    3.7138    4.8608 H   0  0  0  0  0  0  0  0  0  0  0  0
    4.7026    5.2156   -0.8306 H   0  0  0  0  0  0  0  0  0  0  0  0
    4.4718    3.3186   -2.2772 H   0  0  0  0  0  0  0  0  0  0  0  0
    4.2500    1.6875   -3.4908 H   0  0  0  0  0  0  0  0  0  0  0  0
    4.0113   -0.2702   -4.8874 H   0  0  0  0  0  0  0  0  0  0  0  0
    3.6650   -2.5038   -3.8634 H   0  0  0  0  0  0  0  0  0  0  0  0
    3.5623   -2.7321   -1.4477 H   0  0  0  0  0  0  0  0  0  0  0  0
    1.1401   -1.0110    0.5240 H   0  0  0  0  0  0  0  0  0  0  0  0
   -1.2726   -0.9236    0.4536 H   0  0  0  0  0  0  0  0  0  0  0  0
  1  2  4  0
  2  3  4  0
  3  4  4  0
  4  5  4  0
  5  6  4  0
  5  7  4  0
  7  8  4  0
  8  9  4  0
  9 10  4  0
 10 11  4  0
 11 12  4  0
 12 13  4  0
 13 14  4  0
 14 15  4  0
 15 16  4  0
 10 17  4  0
 17 18  4  0
 18 19  4  0
 19 20  4  0
 20 21  1  0
 21 22  4  0
 22 23  4  0
 23 24  4  0
 24 25  4  0
 25 26  4  0
 26 27  4  0
 27 28  4  0
 28 29  4  0
 29 30  4  0
 30 31  4  0
 31 32  4  0
 32 33  4  0
 33 34  1  0
 34 35  4  0
 35 36  4  0
 36 37  4  0
 37 38  4  0
 38 39  4  0
 39 40  4  0
 40 41  4  0
 41 42  4  0
 42 43  4  0
 40 44  4  0
 44 45  4  0
 45 46  4  0
 46 47  4  0
 46 48  4  0
 48 49  4  0
 49 50  4  0
 50 51  4  0
 51 52  4  0
 52 53  4  0
 33 54  4  0
 54 55  4  0
 55 56  4  0
 56 57  4  0
 57 58  4  0
  6  1  4  0
 16  7  4  0
 58 21  4  0
 20  4  4  0
 58 25  4  0
 19  8  4  0
 56 27  4  0
 14  9  4  0
 54 29  4  0
 53 34  4  0
 47 35  4  0
 53 48  4  0
 43 38  4  0
 47 39  4  0
  1 59  1  0
  2 60  1  0
  3 61  1  0
  6 62  1  0
 11 63  1  0
 12 64  1  0
 13 65  1  0
 15 66  1  0
 16 67  1  0
 17 68  1  0
 18 69  1  0
 22 70  1  0
 23 71  1  0
 24 72  1  0
 26 73  1  0
 28 74  1  0
 30 75  1  0
 31 76  1  0
 32 77  1  0
 36 78  1  0
 37 79  1  0
 41 80  1  0
 42 81  1  0
 43 82  1  0
 44 83  1  0
 45 84  1  0
 49 85  1  0
 50 86  1  0
 51 87  1  0
 52 88  1  0
 55 89  1  0
 57 90  1  0
M  END
