
     RDKit          3D

 90103  0  0  0  0  0  0  0  0999 V2000
   -4.1415    3.4365    5.3628 C   0  0  0  0  0  0  0  0  0  0  0  0
   -3.9663    2.0693    5.5033 C   0  0  0  0  0  0  0  0  0  0  0  0
   -3.8895    1.2571    4.3678 C   0  0  0  0  0  0  0  0  0  0  0  0
   -3.9847    1.7798    3.0514 C   0  0  0  0  0  0  0  0  0  0  0  0
   -4.1636    3.1794    2.9394 C   0  0  0  0  0  0  0  0  0  0  0  0
   -4.2393    3.9867    4.0882 C   0  0  0  0  0  0  0  0  0  0  0  0
   -4.2666    3.7707    1.6772 C   0  0  0  0  0  0  0  0  0  0  0  0
   -4.1983    3.0113    0.5062 C   0  0  0  0  0  0  0  0  0  0  0  0
   -4.3051    3.6372   -0.7410 C   0  0  0  0  0  0  0  0  0  0  0  0
   -4.2402    2.8962   -1.9178 C   0  0  0  0  0  0  0  0  0  0  0  0
   -4.0670    1.5107   -1.8754 C   0  0  0  0  0  0  0  0  0  0  0  0
   -3.9552    0.8522   -0.6249 C   0  0  0  0  0  0  0  0  0  0  0  0
   -4.0211    1.6113    0.5829 C   0  0  0  0  0  0  0  0  0  0  0  0
   -3.9116    0.9855    1.8522 C   0  0  0  0  0  0  0  0  0  0  0  0
   -3.7322   -0.4127    1.8537 C   0  0  0  0  0  0  0  0  0  0  0  0
   -3.6669   -1.1586    0.6729 C   0  0  0  0  0  0  0  0  0  0  0  0
   -3.7780   -0.5529   -0.5889 C   0  0  0  0  0  0  0  0  0  0  0  0
   -3.7156   -1.2865   -1.8078 C   0  0  0  0  0  0  0  0  0  0  0  0
   -3.5334   -2.7535   -1.8473 C   0  0  0  0  0  0  0  0  0  0  0  0
   -4.6823   -3.5659   -1.8307 C   0  0  0  0  0  0  0  0  0  0  0  0
   -4.5784   -4.9517   -1.8743 C   0  0  0  0  0  0  0  0  0  0  0  0
   -3.3225   -5.5483   -1.9388 C   0  0  0  0  0  0  0  0  0  0  0  0
   -2.1540   -4.7717   -1.9597 C   0  0  0  0  0  0  0  0  0  0  0  0
   -0.8943   -5.3916   -2.0269 C   0  0  0  0  0  0  0  0  0  0  0  0
    0.2946   -4.6450   -2.0485 C   0  0  0  0  0  0  0  0  0  0  0  0
    1.5540   -5.2622   -2.1151 C   0  0  0  0  0  0  0  0  0  0  0  0
    2.7434   -4.5135   -2.1350 C   0  0  0  0  0  0  0  0  0  0  0  0
    3.9857   -5.1629   -2.1999 C   0  0  0  0  0  0  0  0  0  0  0  0
    5.1733   -4.4372   -2.2185 C   0  0  0  0  0  0  0  0  0  0  0  0
    5.1342   -3.0480   -2.1736 C   0  0  0  0  0  0  0  0  0  0  0  0
    3.9081   -2.3610   -2.1073 C   0  0  0  0  0  0  0  0  0  0  0  0
    3.9363   -0.8828   -2.0652 C   0  0  0  0  0  0  0  0  0  0  0  0
    3.8721   -0.1484   -0.8468 C   0  0  0  0  0  0  0  0  0  0  0  0
    3.7884   -0.7649    0.4118 C   0  0  0  0  0  0  0  0  0  0  0  0
    3.7151   -0.0187    1.5913 C   0  0  0  0  0  0  0  0  0  0  0  0
    3.7229    1.3908    1.5919 C   0  0  0  0  0  0  0  0  0  0  0  0
    3.8118    2.0274    0.3264 C   0  0  0  0  0  0  0  0  0  0  0  0
    3.8254    3.4385    0.2526 C   0  0  0  0  0  0  0  0  0  0  0  0
    3.7515    4.1985    1.4227 C   0  0  0  0  0  0  0  0  0  0  0  0
    3.6618    3.5968    2.6811 C   0  0  0  0  0  0  0  0  0  0  0  0
    3.5878    4.4048    3.8293 C   0  0  0  0  0  0  0  0  0  0  0  0
    3.4964    3.8438    5.0997 C   0  0  0  0  0  0  0  0  0  0  0  0
    3.4777    2.4652    5.2363 C   0  0  0  0  0  0  0  0  0  0  0  0
    3.5512    1.6521    4.1015 C   0  0  0  0  0  0  0  0  0  0  0  0
    3.6456    2.1856    2.7897 C   0  0  0  0  0  0  0  0  0  0  0  0
    3.9113    4.0748   -0.9909 C   0  0  0  0  0  0  0  0  0  0  0  0
    3.9826    3.3332   -2.1669 C   0  0  0  0  0  0  0  0  0  0  0  0
    3.9709    1.9367   -2.1272 C   0  0  0  0  0  0  0  0  0  0  0  0
    3.8860    1.2678   -0.8803 C   0  0  0  0  0  0  0  0  0  0  0  0
    4.0403    1.2010   -3.3133 C   0  0  0  0  0  0  0  0  0  0  0  0
    4.0225   -0.1897   -3.2826 C   0  0  0  0  0  0  0  0  0  0  0  0
    2.6888   -3.1003   -2.0886 C   0  0  0  0  0  0  0  0  0  0  0  0
    1.4110   -2.4959   -2.0227 C   0  0  0  0  0  0  0  0  0  0  0  0
    0.2225   -3.2457   -2.0011 C   0  0  0  0  0  0  0  0  0  0  0  0
   -1.0366   -2.6247   -1.9323 C   0  0  0  0  0  0  0  0  0  0  0  0
   -2.2451   -3.3603   -1.9127 C   0  0  0  0  0  0  0  0  0  0  0  0
   -3.8317   -0.6040   -3.0288 C   0  0  0  0  0  0  0  0  0  0  0  0
   -4.0035    0.7760   -3.0624 C   0  0  0  0  0  0  0  0  0  0  0  0
   -4.2019    4.0749    6.2396 H   0  0  0  0  0  0  0  0  0  0  0  0
   -3.8883    1.6272    6.4931 H   0  0  0  0  0  0  0  0  0  0  0  0
   -3.7519    0.1929    4.5361 H   0  0  0  0  0  0  0  0  0  0  0  0
   -4.3766    5.0624    3.9968 H   0  0  0  0  0  0  0  0  0  0  0  0
   -4.4036    4.8487    1.6041 H   0  0  0  0  0  0  0  0  0  0  0  0
   -4.4421    4.7144   -0.8096 H   0  0  0  0  0  0  0  0  0  0  0  0
   -4.3272    3.4155   -2.8696 H   0  0  0  0  0  0  0  0  0  0  0  0
   -3.6355   -0.9654    2.7837 H   0  0  0  0  0  0  0  0  0  0  0  0
   -3.5215   -2.2338    0.7617 H   0  0  0  0  0  0  0  0  0  0  0  0
   -5.6691   -3.1087   -1.7810 H   0  0  0  0  0  0  0  0  0  0  0  0
   -5.4747   -5.5661   -1.8592 H   0  0  0  0  0  0  0  0  0  0  0  0
   -3.2625   -6.6342   -1.9733 H   0  0  0  0  0  0  0  0  0  0  0  0
   -0.8367   -6.4782   -2.0626 H   0  0  0  0  0  0  0  0  0  0  0  0
    1.6086   -6.3491   -2.1525 H   0  0  0  0  0  0  0  0  0  0  0  0
    4.0378   -6.2493   -2.2358 H   0  0  0  0  0  0  0  0  0  0  0  0
    6.1283   -4.9535   -2.2667 H   0  0  0  0  0  0  0  0  0  0  0  0
    6.0692   -2.4901   -2.1860 H   0  0  0  0  0  0  0  0  0  0  0  0
    3.7736   -1.8500    0.4992 H   0  0  0  0  0  0  0  0  0  0  0  0
    3.6500   -0.5806    2.5186 H   0  0  0  0  0  0  0  0  0  0  0  0
    3.7638    5.2853    1.3523 H   0  0  0  0  0  0  0  0  0  0  0  0
    3.6006    5.4894    3.7411 H   0  0  0  0  0  0  0  0  0  0  0  0
    3.4397    4.4829    5.9763 H   0  0  0  0  0  0  0  0  0  0  0  0
    3.4059    2.0146    6.2226 H   0  0  0  0  0  0  0  0  0  0  0  0
    3.5318    0.5787    4.2667 H   0  0  0  0  0  0  0  0  0  0  0  0
    3.9220    5.1607   -1.0574 H   0  0  0  0  0  0  0  0  0  0  0  0
    4.0448    3.8606   -3.1162 H   0  0  0  0  0  0  0  0  0  0  0  0
    4.1043    1.7038   -4.2756 H   0  0  0  0  0  0  0  0  0  0  0  0
    4.0681   -0.7409   -4.2201 H   0  0  0  0  0  0  0  0  0  0  0  0
    1.3347   -1.4095   -1.9836 H   0  0  0  0  0  0  0  0  0  0  0  0
   -1.0726   -1.5365   -1.8891 H   0  0  0  0  0  0  0  0  0  0  0  0
   -3.7816   -1.1550   -3.9663 H   0  0  0  0  0  0  0  0  0  0  0  0
   -4.0859    1.2705   -4.0275 H   0  0  0  0  0  0  0  0  0  0  0  0
  1  2  4  0
  2  3  4  0
  3  4  4  0
  4  5  4  0
  5  6  4  0
  5  7  4  0
  7  8  4  0
  8  9  4  0
  9 10  4  0
 10 11  4  0
 11 12  4  0
 12 13  4  0
 13 14  4  0
 14 15  4  0
 15 16  4  0
 16 17  4  0
 17 18  4  0
 18 19  1  0
 19 20  4  0
 20 21  4  0
 21 22  4  0
 22 23  4  0
 23 24  4  0
 24 25  4  0
 25 26  4  0
 26 27  4  0
 27 28  4  0
 28 29  4  0
 29 30  4  0
 30 31  4  0
 31 32  1  0
 32 33  4  0
 33 34  4  0
 34 35  4  0
 35 36  4  0
 36 37  4  0
 37 38  4  0
 38 39  4  0
 39 40  4  0
 40 41  4  0
 41 42  4  0
 42 43  4  0
 43 44  4  0
 44 45  4  0
 38 46  4  0
 46 47  4  0
 47 48  4  0
 48 49  4  0
 48 50  4  0
 50 51  4  0
 31 52  4  0
 52 53  4  0
 53 54  4  0
 54 55  4  0
 55 56  4  0
 18 57  4  0
 57 58  4  0
  6  1  4  0
 13  8  4  0
 56 19  4  0
 14  4  4  0
 56 23  4  0
 58 11  4  0
 17 12  4  0
 54 25  4  0
 52 27  4  0
 51 32  4  0
 49 33  4  0
 45 36  4  0
 49 37  4  0
 45 40  4  0
  1 59  1  0
  2 60  1  0
  3 61  1  0
  6 62  1  0
  7 63  1  0
  9 64  1  0
 10 65  1  0
 15 66  1  0
 16 67  1  0
 20 68  1  0
 21 69  1  0
 22 70  1  0
 24 71  1  0
 26 72  1  0
 28 73  1  0
 29 74  1  0
 30 75  1  0
 34 76  1  0
 35 77  1  0
 39 78  1  0
 41 79  1  0
 42 80  1  0
 43 81  1  0
 44 82  1  0
 46 83  1  0
 47 84  1  0
 50 85  1  0
 51 86  1  0
 53 87  1  0
 55 88  1  0
 57 89  1  0
 58 90  1  0
M  END
