
     RDKit          3D

 62 69  0  0  0  0  0  0  0  0999 V2000
    4.8238    2.0932   -2.5537 C   0  0  0  0  0  0  0  0  0  0  0  0
    4.5413    0.8800   -3.1794 C   0  0  0  0  0  0  0  0  0  0  0  0
    4.1477   -0.2446   -2.4348 C   0  0  0  0  0  0  0  0  0  0  0  0
    3.8643   -1.4550   -3.0847 C   0  0  0  0  0  0  0  0  0  0  0  0
    3.4699   -2.5787   -2.3643 C   0  0  0  0  0  0  0  0  0  0  0  0
    3.3585   -2.5077   -0.9798 C   0  0  0  0  0  0  0  0  0  0  0  0
    3.6355   -1.3122   -0.2908 C   0  0  0  0  0  0  0  0  0  0  0  0
    3.5064   -1.3112    1.1824 C   0  0  0  0  0  0  0  0  0  0  0  0
    4.6130   -1.7327    1.9436 C   0  0  0  0  0  0  0  0  0  0  0  0
    4.5579   -1.7578    3.3326 C   0  0  0  0  0  0  0  0  0  0  0  0
    3.3933   -1.3621    3.9839 C   0  0  0  0  0  0  0  0  0  0  0  0
    2.2693   -0.9360    3.2596 C   0  0  0  0  0  0  0  0  0  0  0  0
    1.1033   -0.5373    3.9354 C   0  0  0  0  0  0  0  0  0  0  0  0
   -0.0378   -0.1003    3.2439 C   0  0  0  0  0  0  0  0  0  0  0  0
   -1.2009    0.3025    3.9196 C   0  0  0  0  0  0  0  0  0  0  0  0
   -2.3410    0.7450    3.2272 C   0  0  0  0  0  0  0  0  0  0  0  0
   -3.4855    1.1427    3.9351 C   0  0  0  0  0  0  0  0  0  0  0  0
   -4.6232    1.5861    3.2671 C   0  0  0  0  0  0  0  0  0  0  0  0
   -4.6307    1.6372    1.8778 C   0  0  0  0  0  0  0  0  0  0  0  0
   -3.5031    1.2442    1.1328 C   0  0  0  0  0  0  0  0  0  0  0  0
   -3.5801    1.3275   -0.3415 C   0  0  0  0  0  0  0  0  0  0  0  0
   -4.0237    0.2374   -1.1454 C   0  0  0  0  0  0  0  0  0  0  0  0
   -4.4157   -1.0145   -0.6154 C   0  0  0  0  0  0  0  0  0  0  0  0
   -4.8428   -2.0592   -1.4378 C   0  0  0  0  0  0  0  0  0  0  0  0
   -4.8905   -1.8810   -2.8137 C   0  0  0  0  0  0  0  0  0  0  0  0
   -4.5103   -0.6593   -3.3671 C   0  0  0  0  0  0  0  0  0  0  0  0
   -4.0770    0.4010   -2.5533 C   0  0  0  0  0  0  0  0  0  0  0  0
   -3.6957    1.6214   -3.1303 C   0  0  0  0  0  0  0  0  0  0  0  0
   -3.2608    2.6816   -2.3402 C   0  0  0  0  0  0  0  0  0  0  0  0
   -3.2050    2.5357   -0.9583 C   0  0  0  0  0  0  0  0  0  0  0  0
   -2.3350    0.7906    1.8127 C   0  0  0  0  0  0  0  0  0  0  0  0
   -1.1555    0.3769    1.1489 C   0  0  0  0  0  0  0  0  0  0  0  0
   -0.0145   -0.0639    1.8426 C   0  0  0  0  0  0  0  0  0  0  0  0
    1.1500   -0.4668    1.1652 C   0  0  0  0  0  0  0  0  0  0  0  0
    2.3109   -0.9062    1.8454 C   0  0  0  0  0  0  0  0  0  0  0  0
    4.0350   -0.1566   -1.0236 C   0  0  0  0  0  0  0  0  0  0  0  0
    4.3264    1.0892   -0.4194 C   0  0  0  0  0  0  0  0  0  0  0  0
    4.7152    2.1984   -1.1737 C   0  0  0  0  0  0  0  0  0  0  0  0
    5.1262    2.9535   -3.1447 H   0  0  0  0  0  0  0  0  0  0  0  0
    4.6306    0.8186   -4.2619 H   0  0  0  0  0  0  0  0  0  0  0  0
    3.9470   -1.5306   -4.1670 H   0  0  0  0  0  0  0  0  0  0  0  0
    3.2478   -3.5079   -2.8819 H   0  0  0  0  0  0  0  0  0  0  0  0
    3.0449   -3.3918   -0.4272 H   0  0  0  0  0  0  0  0  0  0  0  0
    5.5297   -2.0409    1.4432 H   0  0  0  0  0  0  0  0  0  0  0  0
    5.4212   -2.0840    3.9065 H   0  0  0  0  0  0  0  0  0  0  0  0
    3.3699   -1.3882    5.0715 H   0  0  0  0  0  0  0  0  0  0  0  0
    1.0829   -0.5649    5.0234 H   0  0  0  0  0  0  0  0  0  0  0  0
   -1.2171    0.2726    5.0078 H   0  0  0  0  0  0  0  0  0  0  0  0
   -3.4991    1.1106    5.0228 H   0  0  0  0  0  0  0  0  0  0  0  0
   -5.5022    1.8912    3.8284 H   0  0  0  0  0  0  0  0  0  0  0  0
   -5.5257    1.9841    1.3639 H   0  0  0  0  0  0  0  0  0  0  0  0
   -4.3868   -1.1913    0.4582 H   0  0  0  0  0  0  0  0  0  0  0  0
   -5.1355   -3.0092   -0.9987 H   0  0  0  0  0  0  0  0  0  0  0  0
   -5.2218   -2.6911   -3.4576 H   0  0  0  0  0  0  0  0  0  0  0  0
   -4.5542   -0.5404   -4.4477 H   0  0  0  0  0  0  0  0  0  0  0  0
   -3.7344    1.7555   -4.2095 H   0  0  0  0  0  0  0  0  0  0  0  0
   -2.9652    3.6201   -2.8013 H   0  0  0  0  0  0  0  0  0  0  0  0
   -2.8599    3.3701   -0.3501 H   0  0  0  0  0  0  0  0  0  0  0  0
   -1.1206    0.3971    0.0601 H   0  0  0  0  0  0  0  0  0  0  0  0
    1.1507   -0.4317    0.0762 H   0  0  0  0  0  0  0  0  0  0  0  0
    4.2478    1.2097    0.6595 H   0  0  0  0  0  0  0  0  0  0  0  0
    4.9308    3.1415   -0.6784 H   0  0  0  0  0  0  0  0  0  0  0  0
  1  2  4  0
  2  3  4  0
  3  4  4  0
  4  5  4  0
  5  6  4  0
  6  7  4  0
  7  8  1  0
  8  9  4  0
  9 10  4  0
 10 11  4  0
 11 12  4  0
 12 13  4  0
 13 14  4  0
 14 15  4  0
 15 16  4  0
 16 17  4  0
 17 18  4  0
 18 19  4  0
 19 20  4  0
 20 21  1  0
 21 22  4  0
 22 23  4  0
 23 24  4  0
 24 25  4  0
 25 26  4  0
 26 27  4  0
 27 28  4  0
 28 29  4  0
 29 30  4  0
 20 31  4  0
 31 32  4  0
 32 33  4  0
 33 34  4  0
 34 35  4  0
  7 36  4  0
 36 37  4  0
 37 38  4  0
 38  1  4  0
 36  3  4  0
 35  8  4  0
 35 12  4  0
 33 14  4  0
 31 16  4  0
 30 21  4  0
 27 22  4  0
  1 39  1  0
  2 40  1  0
  4 41  1  0
  5 42  1  0
  6 43  1  0
  9 44  1  0
 10 45  1  0
 11 46  1  0
 13 47  1  0
 15 48  1  0
 17 49  1  0
 18 50  1  0
 19 51  1  0
 23 52  1  0
 24 53  1  0
 25 54  1  0
 26 55  1  0
 28 56  1  0
 29 57  1  0
 30 58  1  0
 32 59  1  0
 34 60  1  0
 37 61  1  0
 38 62  1  0
M  END
