
     RDKit          3D

 62 69  0  0  0  0  0  0  0  0999 V2000
    3.9028   -4.7142    1.8074 C   0  0  0  0  0  0  0  0  0  0  0  0
    3.7244   -3.8160    2.8553 C   0  0  0  0  0  0  0  0  0  0  0  0
    3.6664   -2.4455    2.5972 C   0  0  0  0  0  0  0  0  0  0  0  0
    3.7853   -1.9563    1.2862 C   0  0  0  0  0  0  0  0  0  0  0  0
    3.7284   -0.5797    1.0099 C   0  0  0  0  0  0  0  0  0  0  0  0
    3.8427   -0.0924   -0.3019 C   0  0  0  0  0  0  0  0  0  0  0  0
    3.7818    1.3527   -0.5733 C   0  0  0  0  0  0  0  0  0  0  0  0
    4.9944    2.0571   -0.6857 C   0  0  0  0  0  0  0  0  0  0  0  0
    5.0076    3.4253   -0.9337 C   0  0  0  0  0  0  0  0  0  0  0  0
    3.8057    4.1128   -1.0728 C   0  0  0  0  0  0  0  0  0  0  0  0
    2.5760    3.4450   -0.9685 C   0  0  0  0  0  0  0  0  0  0  0  0
    1.3725    4.1565   -1.1111 C   0  0  0  0  0  0  0  0  0  0  0  0
    0.1242    3.5216   -1.0139 C   0  0  0  0  0  0  0  0  0  0  0  0
   -1.0782    4.2327   -1.1534 C   0  0  0  0  0  0  0  0  0  0  0  0
   -2.3278    3.5971   -1.0542 C   0  0  0  0  0  0  0  0  0  0  0  0
   -3.5093    4.3400   -1.1981 C   0  0  0  0  0  0  0  0  0  0  0  0
   -4.7557    3.7284   -1.1037 C   0  0  0  0  0  0  0  0  0  0  0  0
   -4.8366    2.3613   -0.8632 C   0  0  0  0  0  0  0  0  0  0  0  0
   -3.6746    1.5825   -0.7125 C   0  0  0  0  0  0  0  0  0  0  0  0
   -3.8338    0.1418   -0.4581 C   0  0  0  0  0  0  0  0  0  0  0  0
   -3.7949   -0.3634    0.8514 C   0  0  0  0  0  0  0  0  0  0  0  0
   -3.9405   -1.7371    1.1097 C   0  0  0  0  0  0  0  0  0  0  0  0
   -3.8951   -2.2452    2.4182 C   0  0  0  0  0  0  0  0  0  0  0  0
   -4.0412   -3.6125    2.6585 C   0  0  0  0  0  0  0  0  0  0  0  0
   -4.2342   -4.4888    1.5947 C   0  0  0  0  0  0  0  0  0  0  0  0
   -4.2809   -3.9999    0.2881 C   0  0  0  0  0  0  0  0  0  0  0  0
   -4.1355   -2.6273    0.0298 C   0  0  0  0  0  0  0  0  0  0  0  0
   -4.1791   -2.1207   -1.2775 C   0  0  0  0  0  0  0  0  0  0  0  0
   -4.0306   -0.7523   -1.5176 C   0  0  0  0  0  0  0  0  0  0  0  0
   -2.3954    2.2046   -0.8092 C   0  0  0  0  0  0  0  0  0  0  0  0
   -1.1727    1.5041   -0.6754 C   0  0  0  0  0  0  0  0  0  0  0  0
    0.0771    2.1416   -0.7716 C   0  0  0  0  0  0  0  0  0  0  0  0
    1.2807    1.4286   -0.6295 C   0  0  0  0  0  0  0  0  0  0  0  0
    2.5483    2.0521   -0.7189 C   0  0  0  0  0  0  0  0  0  0  0  0
    4.0212   -1.0085   -1.3456 C   0  0  0  0  0  0  0  0  0  0  0  0
    4.0817   -2.3804   -1.0876 C   0  0  0  0  0  0  0  0  0  0  0  0
    3.9654   -2.8687    0.2222 C   0  0  0  0  0  0  0  0  0  0  0  0
    4.0230   -4.2442    0.4986 C   0  0  0  0  0  0  0  0  0  0  0  0
    3.9491   -5.7815    2.0072 H   0  0  0  0  0  0  0  0  0  0  0  0
    3.6309   -4.1806    3.8749 H   0  0  0  0  0  0  0  0  0  0  0  0
    3.5280   -1.7591    3.4297 H   0  0  0  0  0  0  0  0  0  0  0  0
    3.5863    0.1292    1.8244 H   0  0  0  0  0  0  0  0  0  0  0  0
    5.9402    1.5297   -0.5740 H   0  0  0  0  0  0  0  0  0  0  0  0
    5.9526    3.9553   -1.0163 H   0  0  0  0  0  0  0  0  0  0  0  0
    3.8364    5.1834   -1.2650 H   0  0  0  0  0  0  0  0  0  0  0  0
    1.4073    5.2279   -1.3012 H   0  0  0  0  0  0  0  0  0  0  0  0
   -1.0396    5.3041   -1.3426 H   0  0  0  0  0  0  0  0  0  0  0  0
   -3.4669    5.4109   -1.3864 H   0  0  0  0  0  0  0  0  0  0  0  0
   -5.6625    4.3166   -1.2165 H   0  0  0  0  0  0  0  0  0  0  0  0
   -5.8167    1.8932   -0.7888 H   0  0  0  0  0  0  0  0  0  0  0  0
   -3.6429    0.3284    1.6786 H   0  0  0  0  0  0  0  0  0  0  0  0
   -3.7448   -1.5757    3.2623 H   0  0  0  0  0  0  0  0  0  0  0  0
   -4.0043   -3.9916    3.6764 H   0  0  0  0  0  0  0  0  0  0  0  0
   -4.3490   -5.5535    1.7804 H   0  0  0  0  0  0  0  0  0  0  0  0
   -4.4320   -4.7002   -0.5302 H   0  0  0  0  0  0  0  0  0  0  0  0
   -4.3275   -2.7890   -2.1225 H   0  0  0  0  0  0  0  0  0  0  0  0
   -4.0632   -0.3848   -2.5414 H   0  0  0  0  0  0  0  0  0  0  0  0
   -1.1891    0.4304   -0.4900 H   0  0  0  0  0  0  0  0  0  0  0  0
    1.2245    0.3565   -0.4436 H   0  0  0  0  0  0  0  0  0  0  0  0
    4.1083   -0.6553   -2.3711 H   0  0  0  0  0  0  0  0  0  0  0  0
    4.2177   -3.0657   -1.9210 H   0  0  0  0  0  0  0  0  0  0  0  0
    4.1639   -4.9616   -0.3067 H   0  0  0  0  0  0  0  0  0  0  0  0
  1  2  4  0
  2  3  4  0
  3  4  4  0
  4  5  4  0
  5  6  4  0
  6  7  1  0
  7  8  4  0
  8  9  4  0
  9 10  4  0
 10 11  4  0
 11 12  4  0
 12 13  4  0
 13 14  4  0
 14 15  4  0
 15 16  4  0
 16 17  4  0
 17 18  4  0
 18 19  4  0
 19 20  1  0
 20 21  4  0
 21 22  4  0
 22 23  4  0
 23 24  4  0
 24 25  4  0
 25 26  4  0
 26 27  4  0
 27 28  4  0
 28 29  4  0
 19 30  4  0
 30 31  4  0
 31 32  4  0
 32 33  4  0
 33 34  4  0
  6 35  4  0
 35 36  4  0
 36 37  4  0
 37 38  4  0
 38  1  4  0
 37  4  4  0
 34  7  4  0
 34 11  4  0
 32 13  4  0
 30 15  4  0
 29 20  4  0
 27 22  4  0
  1 39  1  0
  2 40  1  0
  3 41  1  0
  5 42  1  0
  8 43  1  0
  9 44  1  0
 10 45  1  0
 12 46  1  0
 14 47  1  0
 16 48  1  0
 17 49  1  0
 18 50  1  0
 21 51  1  0
 23 52  1  0
 24 53  1  0
 25 54  1  0
 26 55  1  0
 28 56  1  0
 29 57  1  0
 31 58  1  0
 33 59  1  0
 35 60  1  0
 36 61  1  0
 38 62  1  0
M  END
