
     RDKit          3D

 62 69  0  0  0  0  0  0  0  0999 V2000
    5.0287    2.9194    1.1249 C   0  0  0  0  0  0  0  0  0  0  0  0
    5.0161    2.0027    0.0825 C   0  0  0  0  0  0  0  0  0  0  0  0
    4.4545    0.7386    0.2744 C   0  0  0  0  0  0  0  0  0  0  0  0
    3.8891    0.3557    1.5136 C   0  0  0  0  0  0  0  0  0  0  0  0
    3.9094    1.3055    2.5667 C   0  0  0  0  0  0  0  0  0  0  0  0
    4.4792    2.5726    2.3582 C   0  0  0  0  0  0  0  0  0  0  0  0
    3.3572    0.9783    3.8140 C   0  0  0  0  0  0  0  0  0  0  0  0
    2.7858   -0.2708    4.0384 C   0  0  0  0  0  0  0  0  0  0  0  0
    2.7602   -1.2123    3.0151 C   0  0  0  0  0  0  0  0  0  0  0  0
    3.3022   -0.9216    1.7492 C   0  0  0  0  0  0  0  0  0  0  0  0
    3.2325   -1.9663    0.7051 C   0  0  0  0  0  0  0  0  0  0  0  0
    4.2716   -2.9127    0.6405 C   0  0  0  0  0  0  0  0  0  0  0  0
    4.2606   -3.9221   -0.3159 C   0  0  0  0  0  0  0  0  0  0  0  0
    3.2079   -4.0031   -1.2229 C   0  0  0  0  0  0  0  0  0  0  0  0
    2.1527   -3.0787   -1.1887 C   0  0  0  0  0  0  0  0  0  0  0  0
    1.0965   -3.1755   -2.1112 C   0  0  0  0  0  0  0  0  0  0  0  0
    0.0264   -2.2665   -2.1052 C   0  0  0  0  0  0  0  0  0  0  0  0
   -1.0304   -2.3622   -3.0245 C   0  0  0  0  0  0  0  0  0  0  0  0
   -2.1014   -1.4519   -3.0155 C   0  0  0  0  0  0  0  0  0  0  0  0
   -3.1434   -1.5785   -3.9467 C   0  0  0  0  0  0  0  0  0  0  0  0
   -4.2123   -0.6871   -3.9508 C   0  0  0  0  0  0  0  0  0  0  0  0
   -4.2527    0.3460   -3.0209 C   0  0  0  0  0  0  0  0  0  0  0  0
   -3.2273    0.5052   -2.0708 C   0  0  0  0  0  0  0  0  0  0  0  0
   -3.3317    1.6261   -1.1118 C   0  0  0  0  0  0  0  0  0  0  0  0
   -2.8439    2.8855   -1.5078 C   0  0  0  0  0  0  0  0  0  0  0  0
   -2.9048    3.9791   -0.6507 C   0  0  0  0  0  0  0  0  0  0  0  0
   -3.4569    3.8325    0.6185 C   0  0  0  0  0  0  0  0  0  0  0  0
   -3.9564    2.5945    1.0492 C   0  0  0  0  0  0  0  0  0  0  0  0
   -4.5083    2.4655    2.3347 C   0  0  0  0  0  0  0  0  0  0  0  0
   -5.0072    1.2436    2.7833 C   0  0  0  0  0  0  0  0  0  0  0  0
   -4.9614    0.1332    1.9515 C   0  0  0  0  0  0  0  0  0  0  0  0
   -4.4169    0.2456    0.6706 C   0  0  0  0  0  0  0  0  0  0  0  0
   -3.9014    1.4708    0.1856 C   0  0  0  0  0  0  0  0  0  0  0  0
   -2.1301   -0.4047   -2.0640 C   0  0  0  0  0  0  0  0  0  0  0  0
   -1.0557   -0.3227   -1.1475 C   0  0  0  0  0  0  0  0  0  0  0  0
    0.0126   -1.2356   -1.1554 C   0  0  0  0  0  0  0  0  0  0  0  0
    1.0668   -1.1387   -0.2315 C   0  0  0  0  0  0  0  0  0  0  0  0
    2.1523   -2.0457   -0.2215 C   0  0  0  0  0  0  0  0  0  0  0  0
    5.4641    3.9044    0.9803 H   0  0  0  0  0  0  0  0  0  0  0  0
    5.4394    2.2663   -0.8831 H   0  0  0  0  0  0  0  0  0  0  0  0
    4.4585    0.0468   -0.5660 H   0  0  0  0  0  0  0  0  0  0  0  0
    4.4979    3.3058    3.1620 H   0  0  0  0  0  0  0  0  0  0  0  0
    3.3661    1.7021    4.6262 H   0  0  0  0  0  0  0  0  0  0  0  0
    2.3580   -0.5089    5.0084 H   0  0  0  0  0  0  0  0  0  0  0  0
    2.3058   -2.1844    3.1998 H   0  0  0  0  0  0  0  0  0  0  0  0
    5.0999   -2.8568    1.3447 H   0  0  0  0  0  0  0  0  0  0  0  0
    5.0709   -4.6450   -0.3544 H   0  0  0  0  0  0  0  0  0  0  0  0
    3.2178   -4.8007   -1.9632 H   0  0  0  0  0  0  0  0  0  0  0  0
    1.1062   -3.9754   -2.8496 H   0  0  0  0  0  0  0  0  0  0  0  0
   -1.0188   -3.1634   -3.7615 H   0  0  0  0  0  0  0  0  0  0  0  0
   -3.1298   -2.3805   -4.6817 H   0  0  0  0  0  0  0  0  0  0  0  0
   -5.0127   -0.7981   -4.6770 H   0  0  0  0  0  0  0  0  0  0  0  0
   -5.0942    1.0364   -3.0295 H   0  0  0  0  0  0  0  0  0  0  0  0
   -2.4040    3.0102   -2.4959 H   0  0  0  0  0  0  0  0  0  0  0  0
   -2.5191    4.9434   -0.9702 H   0  0  0  0  0  0  0  0  0  0  0  0
   -3.4931    4.6988    1.2758 H   0  0  0  0  0  0  0  0  0  0  0  0
   -4.5529    3.3234    3.0023 H   0  0  0  0  0  0  0  0  0  0  0  0
   -5.4295    1.1608    3.7811 H   0  0  0  0  0  0  0  0  0  0  0  0
   -5.3466   -0.8234    2.2943 H   0  0  0  0  0  0  0  0  0  0  0  0
   -4.3937   -0.6466    0.0477 H   0  0  0  0  0  0  0  0  0  0  0  0
   -1.0487    0.4717   -0.4020 H   0  0  0  0  0  0  0  0  0  0  0  0
    1.0386   -0.3309    0.4990 H   0  0  0  0  0  0  0  0  0  0  0  0
  1  2  4  0
  2  3  4  0
  3  4  4  0
  4  5  4  0
  5  6  4  0
  5  7  4  0
  7  8  4  0
  8  9  4  0
  9 10  4  0
 10 11  1  0
 11 12  4  0
 12 13  4  0
 13 14  4  0
 14 15  4  0
 15 16  4  0
 16 17  4  0
 17 18  4  0
 18 19  4  0
 19 20  4  0
 20 21  4  0
 21 22  4  0
 22 23  4  0
 23 24  1  0
 24 25  4  0
 25 26  4  0
 26 27  4  0
 27 28  4  0
 28 29  4  0
 29 30  4  0
 30 31  4  0
 31 32  4  0
 32 33  4  0
 23 34  4  0
 34 35  4  0
 35 36  4  0
 36 37  4  0
 37 38  4  0
  6  1  4  0
 38 11  4  0
 10  4  4  0
 38 15  4  0
 36 17  4  0
 34 19  4  0
 33 24  4  0
 33 28  4  0
  1 39  1  0
  2 40  1  0
  3 41  1  0
  6 42  1  0
  7 43  1  0
  8 44  1  0
  9 45  1  0
 12 46  1  0
 13 47  1  0
 14 48  1  0
 16 49  1  0
 18 50  1  0
 20 51  1  0
 21 52  1  0
 22 53  1  0
 25 54  1  0
 26 55  1  0
 27 56  1  0
 29 57  1  0
 30 58  1  0
 31 59  1  0
 32 60  1  0
 35 61  1  0
 37 62  1  0
M  END
