
     RDKit          3D

 74 83  0  0  0  0  0  0  0  0999 V2000
   -3.5909   -3.2310   -3.4349 C   0  0  0  0  0  0  0  0  0  0  0  0
   -3.4638   -3.6265   -2.1118 C   0  0  0  0  0  0  0  0  0  0  0  0
   -3.5373   -2.6744   -1.0924 C   0  0  0  0  0  0  0  0  0  0  0  0
   -3.7425   -1.2979   -1.3619 C   0  0  0  0  0  0  0  0  0  0  0  0
   -3.8661   -0.9176   -2.7171 C   0  0  0  0  0  0  0  0  0  0  0  0
   -3.7897   -1.8851   -3.7346 C   0  0  0  0  0  0  0  0  0  0  0  0
   -4.0674    0.4280   -3.0469 C   0  0  0  0  0  0  0  0  0  0  0  0
   -4.1496    1.4258   -2.0682 C   0  0  0  0  0  0  0  0  0  0  0  0
   -4.3519    2.7648   -2.4469 C   0  0  0  0  0  0  0  0  0  0  0  0
   -4.4362    3.7779   -1.4944 C   0  0  0  0  0  0  0  0  0  0  0  0
   -4.3176    3.4645   -0.1488 C   0  0  0  0  0  0  0  0  0  0  0  0
   -4.1181    2.1378    0.2397 C   0  0  0  0  0  0  0  0  0  0  0  0
   -4.0303    1.0825   -0.7030 C   0  0  0  0  0  0  0  0  0  0  0  0
   -3.8298   -0.2906   -0.3471 C   0  0  0  0  0  0  0  0  0  0  0  0
   -3.7373   -0.6751    1.0862 C   0  0  0  0  0  0  0  0  0  0  0  0
   -4.9327   -0.9889    1.7626 C   0  0  0  0  0  0  0  0  0  0  0  0
   -4.9213   -1.3531    3.1038 C   0  0  0  0  0  0  0  0  0  0  0  0
   -3.7129   -1.4097    3.7916 C   0  0  0  0  0  0  0  0  0  0  0  0
   -2.5012   -1.1053    3.1519 C   0  0  0  0  0  0  0  0  0  0  0  0
   -1.2928   -1.1700    3.8654 C   0  0  0  0  0  0  0  0  0  0  0  0
   -0.0613   -0.8755    3.2594 C   0  0  0  0  0  0  0  0  0  0  0  0
    1.1444   -0.9432    3.9751 C   0  0  0  0  0  0  0  0  0  0  0  0
    2.3794   -0.6554    3.3704 C   0  0  0  0  0  0  0  0  0  0  0  0
    3.5644   -0.7376    4.1179 C   0  0  0  0  0  0  0  0  0  0  0  0
    4.7989   -0.4612    3.5381 C   0  0  0  0  0  0  0  0  0  0  0  0
    4.8642   -0.0978    2.1983 C   0  0  0  0  0  0  0  0  0  0  0  0
    3.6966   -0.0030    1.4159 C   0  0  0  0  0  0  0  0  0  0  0  0
    3.8439    0.3880   -0.0110 C   0  0  0  0  0  0  0  0  0  0  0  0
    4.0125   -0.6232   -1.0116 C   0  0  0  0  0  0  0  0  0  0  0  0
    4.0350   -2.0133   -0.7336 C   0  0  0  0  0  0  0  0  0  0  0  0
    4.2009   -2.9681   -1.7393 C   0  0  0  0  0  0  0  0  0  0  0  0
    4.3479   -2.5620   -3.0570 C   0  0  0  0  0  0  0  0  0  0  0  0
    4.3315   -1.2034   -3.3646 C   0  0  0  0  0  0  0  0  0  0  0  0
    4.1669   -0.2328   -2.3606 C   0  0  0  0  0  0  0  0  0  0  0  0
    4.1582    1.1261   -2.6975 C   0  0  0  0  0  0  0  0  0  0  0  0
    3.9976    2.1273   -1.7320 C   0  0  0  0  0  0  0  0  0  0  0  0
    3.9997    3.4798   -2.1168 C   0  0  0  0  0  0  0  0  0  0  0  0
    3.8374    4.4960   -1.1775 C   0  0  0  0  0  0  0  0  0  0  0  0
    3.6697    4.1717    0.1603 C   0  0  0  0  0  0  0  0  0  0  0  0
    3.6682    2.8318    0.5547 C   0  0  0  0  0  0  0  0  0  0  0  0
    3.8343    1.7736   -0.3739 C   0  0  0  0  0  0  0  0  0  0  0  0
    2.4284   -0.2844    2.0059 C   0  0  0  0  0  0  0  0  0  0  0  0
    1.2019   -0.2163    1.3011 C   0  0  0  0  0  0  0  0  0  0  0  0
   -0.0346   -0.5065    1.9069 C   0  0  0  0  0  0  0  0  0  0  0  0
   -1.2448   -0.4385    1.1922 C   0  0  0  0  0  0  0  0  0  0  0  0
   -2.4960   -0.7331    1.7866 C   0  0  0  0  0  0  0  0  0  0  0  0
   -3.5347   -3.9657   -4.2335 H   0  0  0  0  0  0  0  0  0  0  0  0
   -3.3069   -4.6733   -1.8657 H   0  0  0  0  0  0  0  0  0  0  0  0
   -3.4261   -3.0251   -0.0679 H   0  0  0  0  0  0  0  0  0  0  0  0
   -3.8861   -1.5942   -4.7788 H   0  0  0  0  0  0  0  0  0  0  0  0
   -4.1624    0.7067   -4.0957 H   0  0  0  0  0  0  0  0  0  0  0  0
   -4.4446    3.0310   -3.4979 H   0  0  0  0  0  0  0  0  0  0  0  0
   -4.5906    4.8076   -1.8048 H   0  0  0  0  0  0  0  0  0  0  0  0
   -4.3762    4.2465    0.6033 H   0  0  0  0  0  0  0  0  0  0  0  0
   -4.0246    1.9346    1.3050 H   0  0  0  0  0  0  0  0  0  0  0  0
   -5.8826   -0.9461    1.2317 H   0  0  0  0  0  0  0  0  0  0  0  0
   -5.8519   -1.5918    3.6119 H   0  0  0  0  0  0  0  0  0  0  0  0
   -3.7242   -1.6966    4.8413 H   0  0  0  0  0  0  0  0  0  0  0  0
   -1.3090   -1.4572    4.9153 H   0  0  0  0  0  0  0  0  0  0  0  0
    1.1197   -1.2287    5.0254 H   0  0  0  0  0  0  0  0  0  0  0  0
    3.5340   -1.0216    5.1679 H   0  0  0  0  0  0  0  0  0  0  0  0
    5.7083   -0.5299    4.1292 H   0  0  0  0  0  0  0  0  0  0  0  0
    5.8343    0.1155    1.7519 H   0  0  0  0  0  0  0  0  0  0  0  0
    3.9187   -2.3736    0.2870 H   0  0  0  0  0  0  0  0  0  0  0  0
    4.2139   -4.0251   -1.4871 H   0  0  0  0  0  0  0  0  0  0  0  0
    4.4761   -3.2988   -3.8452 H   0  0  0  0  0  0  0  0  0  0  0  0
    4.4502   -0.9048   -4.4043 H   0  0  0  0  0  0  0  0  0  0  0  0
    4.2815    1.4129   -3.7412 H   0  0  0  0  0  0  0  0  0  0  0  0
    4.1268    3.7542   -3.1621 H   0  0  0  0  0  0  0  0  0  0  0  0
    3.8380    5.5357   -1.4927 H   0  0  0  0  0  0  0  0  0  0  0  0
    3.5359    4.9547    0.9018 H   0  0  0  0  0  0  0  0  0  0  0  0
    3.5284    2.6193    1.6132 H   0  0  0  0  0  0  0  0  0  0  0  0
    1.2060    0.0682    0.2492 H   0  0  0  0  0  0  0  0  0  0  0  0
   -1.2078   -0.1493    0.1423 H   0  0  0  0  0  0  0  0  0  0  0  0
  1  2  4  0
  2  3  4  0
  3  4  4  0
  4  5  4  0
  5  6  4  0
  5  7  4  0
  7  8  4  0
  8  9  4  0
  9 10  4  0
 10 11  4  0
 11 12  4  0
 12 13  4  0
 13 14  4  0
 14 15  1  0
 15 16  4  0
 16 17  4  0
 17 18  4  0
 18 19  4  0
 19 20  4  0
 20 21  4  0
 21 22  4  0
 22 23  4  0
 23 24  4  0
 24 25  4  0
 25 26  4  0
 26 27  4  0
 27 28  1  0
 28 29  4  0
 29 30  4  0
 30 31  4  0
 31 32  4  0
 32 33  4  0
 33 34  4  0
 34 35  4  0
 35 36  4  0
 36 37  4  0
 37 38  4  0
 38 39  4  0
 39 40  4  0
 40 41  4  0
 27 42  4  0
 42 43  4  0
 43 44  4  0
 44 45  4  0
 45 46  4  0
  6  1  4  0
 13  8  4  0
 46 15  4  0
 14  4  4  0
 46 19  4  0
 44 21  4  0
 42 23  4  0
 41 28  4  0
 34 29  4  0
 41 36  4  0
  1 47  1  0
  2 48  1  0
  3 49  1  0
  6 50  1  0
  7 51  1  0
  9 52  1  0
 10 53  1  0
 11 54  1  0
 12 55  1  0
 16 56  1  0
 17 57  1  0
 18 58  1  0
 20 59  1  0
 22 60  1  0
 24 61  1  0
 25 62  1  0
 26 63  1  0
 30 64  1  0
 31 65  1  0
 32 66  1  0
 33 67  1  0
 35 68  1  0
 37 69  1  0
 38 70  1  0
 39 71  1  0
 40 72  1  0
 43 73  1  0
 45 74  1  0
M  END
