
     RDKit          3D

 74 83  0  0  0  0  0  0  0  0999 V2000
   -2.3067   -3.9204    4.0840 C   0  0  0  0  0  0  0  0  0  0  0  0
   -2.1302   -2.6204    4.5471 C   0  0  0  0  0  0  0  0  0  0  0  0
   -2.4513   -1.5394    3.7251 C   0  0  0  0  0  0  0  0  0  0  0  0
   -2.9534   -1.7454    2.4293 C   0  0  0  0  0  0  0  0  0  0  0  0
   -3.2809   -0.6681    1.5884 C   0  0  0  0  0  0  0  0  0  0  0  0
   -3.7828   -0.8537    0.2780 C   0  0  0  0  0  0  0  0  0  0  0  0
   -3.9551   -2.1833   -0.1765 C   0  0  0  0  0  0  0  0  0  0  0  0
   -3.6304   -3.2615    0.6645 C   0  0  0  0  0  0  0  0  0  0  0  0
   -3.1312   -3.0608    1.9604 C   0  0  0  0  0  0  0  0  0  0  0  0
   -2.8038   -4.1400    2.7985 C   0  0  0  0  0  0  0  0  0  0  0  0
   -4.4474   -2.4224   -1.4685 C   0  0  0  0  0  0  0  0  0  0  0  0
   -4.7707   -1.3690   -2.3184 C   0  0  0  0  0  0  0  0  0  0  0  0
   -4.6057   -0.0581   -1.8856 C   0  0  0  0  0  0  0  0  0  0  0  0
   -4.1136    0.2224   -0.5973 C   0  0  0  0  0  0  0  0  0  0  0  0
   -3.9569    1.6401   -0.2057 C   0  0  0  0  0  0  0  0  0  0  0  0
   -5.0856    2.3222    0.2853 C   0  0  0  0  0  0  0  0  0  0  0  0
   -5.0039    3.6557    0.6703 C   0  0  0  0  0  0  0  0  0  0  0  0
   -3.7906    4.3303    0.5701 C   0  0  0  0  0  0  0  0  0  0  0  0
   -2.6432    3.6846    0.0847 C   0  0  0  0  0  0  0  0  0  0  0  0
   -1.4255    4.3805   -0.0064 C   0  0  0  0  0  0  0  0  0  0  0  0
   -0.2575    3.7634   -0.4820 C   0  0  0  0  0  0  0  0  0  0  0  0
    0.9608    4.4553   -0.5685 C   0  0  0  0  0  0  0  0  0  0  0  0
    2.1307    3.8340   -1.0380 C   0  0  0  0  0  0  0  0  0  0  0  0
    3.3327    4.5545   -1.1070 C   0  0  0  0  0  0  0  0  0  0  0  0
    4.5020    3.9550   -1.5653 C   0  0  0  0  0  0  0  0  0  0  0  0
    4.4846    2.6221   -1.9602 C   0  0  0  0  0  0  0  0  0  0  0  0
    3.2993    1.8659   -1.9039 C   0  0  0  0  0  0  0  0  0  0  0  0
    3.3549    0.4514   -2.3319 C   0  0  0  0  0  0  0  0  0  0  0  0
    3.2092    0.1665   -3.7022 C   0  0  0  0  0  0  0  0  0  0  0  0
    3.2550   -1.1425   -4.1689 C   0  0  0  0  0  0  0  0  0  0  0  0
    3.4502   -2.1890   -3.2723 C   0  0  0  0  0  0  0  0  0  0  0  0
    3.5992   -1.9450   -1.8987 C   0  0  0  0  0  0  0  0  0  0  0  0
    3.7921   -3.0159   -1.0090 C   0  0  0  0  0  0  0  0  0  0  0  0
    3.9405   -2.8098    0.3711 C   0  0  0  0  0  0  0  0  0  0  0  0
    4.1315   -3.8814    1.2596 C   0  0  0  0  0  0  0  0  0  0  0  0
    4.2742   -3.6561    2.6297 C   0  0  0  0  0  0  0  0  0  0  0  0
    4.2273   -2.3581    3.1281 C   0  0  0  0  0  0  0  0  0  0  0  0
    4.0388   -1.2844    2.2568 C   0  0  0  0  0  0  0  0  0  0  0  0
    3.8951   -1.4962    0.8755 C   0  0  0  0  0  0  0  0  0  0  0  0
    3.7056   -0.4260   -0.0151 C   0  0  0  0  0  0  0  0  0  0  0  0
    3.5534   -0.6174   -1.4092 C   0  0  0  0  0  0  0  0  0  0  0  0
    2.0981    2.4772   -1.4393 C   0  0  0  0  0  0  0  0  0  0  0  0
    0.8606    1.7974   -1.3496 C   0  0  0  0  0  0  0  0  0  0  0  0
   -0.3084    2.4197   -0.8786 C   0  0  0  0  0  0  0  0  0  0  0  0
   -1.5266    1.7245   -0.7928 C   0  0  0  0  0  0  0  0  0  0  0  0
   -2.7126    2.3279   -0.3120 C   0  0  0  0  0  0  0  0  0  0  0  0
   -2.0570   -4.7643    4.7217 H   0  0  0  0  0  0  0  0  0  0  0  0
   -1.7422   -2.4457    5.5471 H   0  0  0  0  0  0  0  0  0  0  0  0
   -2.3050   -0.5294    4.1024 H   0  0  0  0  0  0  0  0  0  0  0  0
   -3.1346    0.3428    1.9663 H   0  0  0  0  0  0  0  0  0  0  0  0
   -3.7668   -4.2794    0.3031 H   0  0  0  0  0  0  0  0  0  0  0  0
   -2.9342   -5.1633    2.4537 H   0  0  0  0  0  0  0  0  0  0  0  0
   -4.5808   -3.4412   -1.8268 H   0  0  0  0  0  0  0  0  0  0  0  0
   -5.1476   -1.5698   -3.3176 H   0  0  0  0  0  0  0  0  0  0  0  0
   -4.8553    0.7587   -2.5606 H   0  0  0  0  0  0  0  0  0  0  0  0
   -6.0380    1.8020    0.3717 H   0  0  0  0  0  0  0  0  0  0  0  0
   -5.8841    4.1683    1.0494 H   0  0  0  0  0  0  0  0  0  0  0  0
   -3.7468    5.3732    0.8774 H   0  0  0  0  0  0  0  0  0  0  0  0
   -1.3844    5.4238    0.3021 H   0  0  0  0  0  0  0  0  0  0  0  0
    0.9990    5.4989   -0.2607 H   0  0  0  0  0  0  0  0  0  0  0  0
    3.3675    5.5977   -0.7997 H   0  0  0  0  0  0  0  0  0  0  0  0
    5.4257    4.5254   -1.6120 H   0  0  0  0  0  0  0  0  0  0  0  0
    5.4060    2.1606   -2.3115 H   0  0  0  0  0  0  0  0  0  0  0  0
    3.0537    0.9777   -4.4114 H   0  0  0  0  0  0  0  0  0  0  0  0
    3.1369   -1.3473   -5.2295 H   0  0  0  0  0  0  0  0  0  0  0  0
    3.4832   -3.2063   -3.6573 H   0  0  0  0  0  0  0  0  0  0  0  0
    3.8262   -4.0323   -1.3976 H   0  0  0  0  0  0  0  0  0  0  0  0
    4.1696   -4.9030    0.8885 H   0  0  0  0  0  0  0  0  0  0  0  0
    4.4206   -4.4941    3.3058 H   0  0  0  0  0  0  0  0  0  0  0  0
    4.3363   -2.1787    4.1944 H   0  0  0  0  0  0  0  0  0  0  0  0
    4.0030   -0.2761    2.6639 H   0  0  0  0  0  0  0  0  0  0  0  0
    3.6720    0.5833    0.3927 H   0  0  0  0  0  0  0  0  0  0  0  0
    0.8023    0.7512   -1.6484 H   0  0  0  0  0  0  0  0  0  0  0  0
   -1.5465    0.6809   -1.1050 H   0  0  0  0  0  0  0  0  0  0  0  0
  1  2  4  0
  2  3  4  0
  3  4  4  0
  4  5  4  0
  5  6  4  0
  6  7  4  0
  7  8  4  0
  8  9  4  0
  9 10  4  0
  7 11  4  0
 11 12  4  0
 12 13  4  0
 13 14  4  0
 14 15  1  0
 15 16  4  0
 16 17  4  0
 17 18  4  0
 18 19  4  0
 19 20  4  0
 20 21  4  0
 21 22  4  0
 22 23  4  0
 23 24  4  0
 24 25  4  0
 25 26  4  0
 26 27  4  0
 27 28  1  0
 28 29  4  0
 29 30  4  0
 30 31  4  0
 31 32  4  0
 32 33  4  0
 33 34  4  0
 34 35  4  0
 35 36  4  0
 36 37  4  0
 37 38  4  0
 38 39  4  0
 39 40  4  0
 40 41  4  0
 27 42  4  0
 42 43  4  0
 43 44  4  0
 44 45  4  0
 45 46  4  0
 10  1  4  0
 46 15  4  0
  9  4  4  0
 46 19  4  0
 14  6  4  0
 44 21  4  0
 42 23  4  0
 41 28  4  0
 41 32  4  0
 39 34  4  0
  1 47  1  0
  2 48  1  0
  3 49  1  0
  5 50  1  0
  8 51  1  0
 10 52  1  0
 11 53  1  0
 12 54  1  0
 13 55  1  0
 16 56  1  0
 17 57  1  0
 18 58  1  0
 20 59  1  0
 22 60  1  0
 24 61  1  0
 25 62  1  0
 26 63  1  0
 29 64  1  0
 30 65  1  0
 31 66  1  0
 33 67  1  0
 35 68  1  0
 36 69  1  0
 37 70  1  0
 38 71  1  0
 40 72  1  0
 43 73  1  0
 45 74  1  0
M  END
