
     RDKit          3D

 74 83  0  0  0  0  0  0  0  0999 V2000
   -5.0449    5.2610   -2.6723 C   0  0  0  0  0  0  0  0  0  0  0  0
   -4.7968    4.5976   -3.8699 C   0  0  0  0  0  0  0  0  0  0  0  0
   -4.4879    3.2364   -3.8613 C   0  0  0  0  0  0  0  0  0  0  0  0
   -4.4236    2.5210   -2.6539 C   0  0  0  0  0  0  0  0  0  0  0  0
   -4.1151    1.1506   -2.6291 C   0  0  0  0  0  0  0  0  0  0  0  0
   -4.0531    0.4352   -1.4214 C   0  0  0  0  0  0  0  0  0  0  0  0
   -3.7467   -0.9368   -1.3968 C   0  0  0  0  0  0  0  0  0  0  0  0
   -3.6852   -1.6510   -0.1897 C   0  0  0  0  0  0  0  0  0  0  0  0
   -3.3760   -3.0897   -0.1837 C   0  0  0  0  0  0  0  0  0  0  0  0
   -4.4518   -3.9955   -0.2328 C   0  0  0  0  0  0  0  0  0  0  0  0
   -4.2327   -5.3684   -0.2342 C   0  0  0  0  0  0  0  0  0  0  0  0
   -2.9317   -5.8590   -0.1870 C   0  0  0  0  0  0  0  0  0  0  0  0
   -1.8332   -4.9877   -0.1364 C   0  0  0  0  0  0  0  0  0  0  0  0
   -0.5275   -5.5043   -0.0892 C   0  0  0  0  0  0  0  0  0  0  0  0
    0.5963   -4.6654   -0.0367 C   0  0  0  0  0  0  0  0  0  0  0  0
    1.8998   -5.1845    0.0092 C   0  0  0  0  0  0  0  0  0  0  0  0
    3.0267   -4.3470    0.0629 C   0  0  0  0  0  0  0  0  0  0  0  0
    4.3147   -4.9022    0.1081 C   0  0  0  0  0  0  0  0  0  0  0  0
    5.4432   -4.0899    0.1624 C   0  0  0  0  0  0  0  0  0  0  0  0
    5.2966   -2.7073    0.1725 C   0  0  0  0  0  0  0  0  0  0  0  0
    4.0217   -2.1134    0.1280 C   0  0  0  0  0  0  0  0  0  0  0  0
    3.9428   -0.6443    0.1430 C   0  0  0  0  0  0  0  0  0  0  0  0
    3.9053    0.0572    1.3583 C   0  0  0  0  0  0  0  0  0  0  0  0
    3.8364    1.4609    1.3918 C   0  0  0  0  0  0  0  0  0  0  0  0
    3.7981    2.1634    2.6079 C   0  0  0  0  0  0  0  0  0  0  0  0
    3.7304    3.5663    2.6414 C   0  0  0  0  0  0  0  0  0  0  0  0
    3.6934    4.2699    3.8569 C   0  0  0  0  0  0  0  0  0  0  0  0
    3.6267    5.6640    3.8737 C   0  0  0  0  0  0  0  0  0  0  0  0
    3.5959    6.3723    2.6766 C   0  0  0  0  0  0  0  0  0  0  0  0
    3.6319    5.6878    1.4608 C   0  0  0  0  0  0  0  0  0  0  0  0
    3.6994    4.2850    1.4272 C   0  0  0  0  0  0  0  0  0  0  0  0
    3.7372    3.5823    0.2113 C   0  0  0  0  0  0  0  0  0  0  0  0
    3.8054    2.1797    0.1786 C   0  0  0  0  0  0  0  0  0  0  0  0
    3.8442    1.4778   -1.0359 C   0  0  0  0  0  0  0  0  0  0  0  0
    3.9134    0.0826   -1.0528 C   0  0  0  0  0  0  0  0  0  0  0  0
    2.8624   -2.9413    0.0722 C   0  0  0  0  0  0  0  0  0  0  0  0
    1.5401   -2.4365    0.0261 C   0  0  0  0  0  0  0  0  0  0  0  0
    0.4122   -3.2755   -0.0292 C   0  0  0  0  0  0  0  0  0  0  0  0
   -0.8952   -2.7569   -0.0771 C   0  0  0  0  0  0  0  0  0  0  0  0
   -2.0408   -3.5874   -0.1328 C   0  0  0  0  0  0  0  0  0  0  0  0
   -3.9397   -0.9699    1.0063 C   0  0  0  0  0  0  0  0  0  0  0  0
   -4.2448    0.3935    0.9982 C   0  0  0  0  0  0  0  0  0  0  0  0
   -4.3052    1.1082   -0.2078 C   0  0  0  0  0  0  0  0  0  0  0  0
   -4.6123    2.4788   -0.2316 C   0  0  0  0  0  0  0  0  0  0  0  0
   -4.6753    3.1940   -1.4391 C   0  0  0  0  0  0  0  0  0  0  0  0
   -4.9843    4.5643   -1.4643 C   0  0  0  0  0  0  0  0  0  0  0  0
   -5.2862    6.3207   -2.6766 H   0  0  0  0  0  0  0  0  0  0  0  0
   -4.8441    5.1383   -4.8117 H   0  0  0  0  0  0  0  0  0  0  0  0
   -4.2979    2.7350   -4.8077 H   0  0  0  0  0  0  0  0  0  0  0  0
   -3.9202    0.6316   -3.5658 H   0  0  0  0  0  0  0  0  0  0  0  0
   -3.5506   -1.4634   -2.3297 H   0  0  0  0  0  0  0  0  0  0  0  0
   -5.4737   -3.6216   -0.2721 H   0  0  0  0  0  0  0  0  0  0  0  0
   -5.0738   -6.0551   -0.2727 H   0  0  0  0  0  0  0  0  0  0  0  0
   -2.7804   -6.9366   -0.1895 H   0  0  0  0  0  0  0  0  0  0  0  0
   -0.3816   -6.5833   -0.0931 H   0  0  0  0  0  0  0  0  0  0  0  0
    2.0393   -6.2644    0.0031 H   0  0  0  0  0  0  0  0  0  0  0  0
    4.4491   -5.9820    0.1015 H   0  0  0  0  0  0  0  0  0  0  0  0
    6.4346   -4.5335    0.1970 H   0  0  0  0  0  0  0  0  0  0  0  0
    6.1857   -2.0804    0.2151 H   0  0  0  0  0  0  0  0  0  0  0  0
    3.9262   -0.5051    2.2908 H   0  0  0  0  0  0  0  0  0  0  0  0
    3.8223    1.6090    3.5444 H   0  0  0  0  0  0  0  0  0  0  0  0
    3.7165    3.7340    4.8032 H   0  0  0  0  0  0  0  0  0  0  0  0
    3.5990    6.1952    4.8216 H   0  0  0  0  0  0  0  0  0  0  0  0
    3.5438    7.4578    2.6873 H   0  0  0  0  0  0  0  0  0  0  0  0
    3.6069    6.2591    0.5356 H   0  0  0  0  0  0  0  0  0  0  0  0
    3.7145    4.1372   -0.7248 H   0  0  0  0  0  0  0  0  0  0  0  0
    3.8213    2.0130   -1.9824 H   0  0  0  0  0  0  0  0  0  0  0  0
    3.9420   -0.4383   -2.0078 H   0  0  0  0  0  0  0  0  0  0  0  0
    1.3800   -1.3588    0.0335 H   0  0  0  0  0  0  0  0  0  0  0  0
   -1.0210   -1.6748   -0.0700 H   0  0  0  0  0  0  0  0  0  0  0  0
   -3.8980   -1.5012    1.9552 H   0  0  0  0  0  0  0  0  0  0  0  0
   -4.4352    0.8933    1.9453 H   0  0  0  0  0  0  0  0  0  0  0  0
   -4.8067    2.9980    0.7051 H   0  0  0  0  0  0  0  0  0  0  0  0
   -5.1816    5.1004   -0.5387 H   0  0  0  0  0  0  0  0  0  0  0  0
  1  2  4  0
  2  3  4  0
  3  4  4  0
  4  5  4  0
  5  6  4  0
  6  7  4  0
  7  8  4  0
  8  9  1  0
  9 10  4  0
 10 11  4  0
 11 12  4  0
 12 13  4  0
 13 14  4  0
 14 15  4  0
 15 16  4  0
 16 17  4  0
 17 18  4  0
 18 19  4  0
 19 20  4  0
 20 21  4  0
 21 22  1  0
 22 23  4  0
 23 24  4  0
 24 25  4  0
 25 26  4  0
 26 27  4  0
 27 28  4  0
 28 29  4  0
 29 30  4  0
 30 31  4  0
 31 32  4  0
 32 33  4  0
 33 34  4  0
 34 35  4  0
 21 36  4  0
 36 37  4  0
 37 38  4  0
 38 39  4  0
 39 40  4  0
  8 41  4  0
 41 42  4  0
 42 43  4  0
 43 44  4  0
 44 45  4  0
 45 46  4  0
 46  1  4  0
 45  4  4  0
 43  6  4  0
 40  9  4  0
 40 13  4  0
 38 15  4  0
 36 17  4  0
 35 22  4  0
 33 24  4  0
 31 26  4  0
  1 47  1  0
  2 48  1  0
  3 49  1  0
  5 50  1  0
  7 51  1  0
 10 52  1  0
 11 53  1  0
 12 54  1  0
 14 55  1  0
 16 56  1  0
 18 57  1  0
 19 58  1  0
 20 59  1  0
 23 60  1  0
 25 61  1  0
 27 62  1  0
 28 63  1  0
 29 64  1  0
 30 65  1  0
 32 66  1  0
 34 67  1  0
 35 68  1  0
 37 69  1  0
 39 70  1  0
 41 71  1  0
 42 72  1  0
 44 73  1  0
 46 74  1  0
M  END
