
     RDKit          3D

 74 83  0  0  0  0  0  0  0  0999 V2000
    6.8273    1.5524    3.4061 C   0  0  0  0  0  0  0  0  0  0  0  0
    6.0653    2.4823    2.6972 C   0  0  0  0  0  0  0  0  0  0  0  0
    5.3053    2.0891    1.5826 C   0  0  0  0  0  0  0  0  0  0  0  0
    4.5335    3.0099    0.8580 C   0  0  0  0  0  0  0  0  0  0  0  0
    3.7736    2.6194   -0.2579 C   0  0  0  0  0  0  0  0  0  0  0  0
    3.0106    3.5679   -0.9558 C   0  0  0  0  0  0  0  0  0  0  0  0
    2.2505    3.2023   -2.0627 C   0  0  0  0  0  0  0  0  0  0  0  0
    2.2453    1.8790   -2.4884 C   0  0  0  0  0  0  0  0  0  0  0  0
    2.9960    0.8981   -1.8133 C   0  0  0  0  0  0  0  0  0  0  0  0
    2.9406   -0.4905   -2.3190 C   0  0  0  0  0  0  0  0  0  0  0  0
    3.9315   -0.9079   -3.2270 C   0  0  0  0  0  0  0  0  0  0  0  0
    3.9273   -2.1978   -3.7460 C   0  0  0  0  0  0  0  0  0  0  0  0
    2.9269   -3.0900   -3.3703 C   0  0  0  0  0  0  0  0  0  0  0  0
    1.9187   -2.7092   -2.4712 C   0  0  0  0  0  0  0  0  0  0  0  0
    0.9095   -3.6196   -2.1110 C   0  0  0  0  0  0  0  0  0  0  0  0
   -0.1170   -3.2686   -1.2192 C   0  0  0  0  0  0  0  0  0  0  0  0
   -1.1354   -4.1703   -0.8702 C   0  0  0  0  0  0  0  0  0  0  0  0
   -2.1712   -3.8104    0.0098 C   0  0  0  0  0  0  0  0  0  0  0  0
   -3.1814   -4.7321    0.3243 C   0  0  0  0  0  0  0  0  0  0  0  0
   -4.2200   -4.3910    1.1858 C   0  0  0  0  0  0  0  0  0  0  0  0
   -4.2624   -3.1186    1.7450 C   0  0  0  0  0  0  0  0  0  0  0  0
   -3.2678   -2.1659    1.4549 C   0  0  0  0  0  0  0  0  0  0  0  0
   -3.3794   -0.8303    2.0832 C   0  0  0  0  0  0  0  0  0  0  0  0
   -3.8972    0.3035    1.3889 C   0  0  0  0  0  0  0  0  0  0  0  0
   -4.3460    0.2604    0.0470 C   0  0  0  0  0  0  0  0  0  0  0  0
   -4.8366    1.3955   -0.6208 C   0  0  0  0  0  0  0  0  0  0  0  0
   -5.2648    1.3328   -1.9573 C   0  0  0  0  0  0  0  0  0  0  0  0
   -5.7476    2.4698   -2.6068 C   0  0  0  0  0  0  0  0  0  0  0  0
   -5.8088    3.6829   -1.9283 C   0  0  0  0  0  0  0  0  0  0  0  0
   -5.3872    3.7598   -0.6000 C   0  0  0  0  0  0  0  0  0  0  0  0
   -4.8974    2.6232    0.0655 C   0  0  0  0  0  0  0  0  0  0  0  0
   -4.4649    2.6810    1.3990 C   0  0  0  0  0  0  0  0  0  0  0  0
   -3.9675    1.5466    2.0635 C   0  0  0  0  0  0  0  0  0  0  0  0
   -3.5375    1.6448    3.3954 C   0  0  0  0  0  0  0  0  0  0  0  0
   -3.0357    0.5358    4.0697 C   0  0  0  0  0  0  0  0  0  0  0  0
   -2.9577   -0.6903    3.4187 C   0  0  0  0  0  0  0  0  0  0  0  0
   -2.1990   -2.5135    0.5763 C   0  0  0  0  0  0  0  0  0  0  0  0
   -1.1550   -1.6248    0.2260 C   0  0  0  0  0  0  0  0  0  0  0  0
   -0.1282   -1.9809   -0.6655 C   0  0  0  0  0  0  0  0  0  0  0  0
    0.8830   -1.0718   -1.0208 C   0  0  0  0  0  0  0  0  0  0  0  0
    1.9164   -1.4022   -1.9289 C   0  0  0  0  0  0  0  0  0  0  0  0
    3.7750    1.2673   -0.6777 C   0  0  0  0  0  0  0  0  0  0  0  0
    4.5547    0.3497    0.0665 C   0  0  0  0  0  0  0  0  0  0  0  0
    5.3162    0.7395    1.1819 C   0  0  0  0  0  0  0  0  0  0  0  0
    6.0875   -0.1857    1.9055 C   0  0  0  0  0  0  0  0  0  0  0  0
    6.8383    0.2188    3.0103 C   0  0  0  0  0  0  0  0  0  0  0  0
    7.4109    1.8703    4.2660 H   0  0  0  0  0  0  0  0  0  0  0  0
    6.0688    3.5205    3.0215 H   0  0  0  0  0  0  0  0  0  0  0  0
    4.5247    4.0528    1.1704 H   0  0  0  0  0  0  0  0  0  0  0  0
    2.9991    4.6081   -0.6367 H   0  0  0  0  0  0  0  0  0  0  0  0
    1.6602    3.9467   -2.5904 H   0  0  0  0  0  0  0  0  0  0  0  0
    1.6432    1.6027   -3.3526 H   0  0  0  0  0  0  0  0  0  0  0  0
    4.7156   -0.2158   -3.5299 H   0  0  0  0  0  0  0  0  0  0  0  0
    4.7001   -2.5065   -4.4449 H   0  0  0  0  0  0  0  0  0  0  0  0
    2.9389   -4.0936   -3.7904 H   0  0  0  0  0  0  0  0  0  0  0  0
    0.9193   -4.6210   -2.5381 H   0  0  0  0  0  0  0  0  0  0  0  0
   -1.1252   -5.1707   -1.2999 H   0  0  0  0  0  0  0  0  0  0  0  0
   -3.1684   -5.7311   -0.1066 H   0  0  0  0  0  0  0  0  0  0  0  0
   -4.9968   -5.1146    1.4183 H   0  0  0  0  0  0  0  0  0  0  0  0
   -5.0833   -2.8598    2.4118 H   0  0  0  0  0  0  0  0  0  0  0  0
   -4.3070   -0.6810   -0.4994 H   0  0  0  0  0  0  0  0  0  0  0  0
   -5.2223    0.3925   -2.5033 H   0  0  0  0  0  0  0  0  0  0  0  0
   -6.0760    2.4059   -3.6408 H   0  0  0  0  0  0  0  0  0  0  0  0
   -6.1851    4.5698   -2.4312 H   0  0  0  0  0  0  0  0  0  0  0  0
   -5.4438    4.7165   -0.0857 H   0  0  0  0  0  0  0  0  0  0  0  0
   -4.5133    3.6309    1.9290 H   0  0  0  0  0  0  0  0  0  0  0  0
   -3.5884    2.5959    3.9217 H   0  0  0  0  0  0  0  0  0  0  0  0
   -2.7032    0.6276    5.1002 H   0  0  0  0  0  0  0  0  0  0  0  0
   -2.5586   -1.5499    3.9546 H   0  0  0  0  0  0  0  0  0  0  0  0
   -1.1432   -0.6208    0.6489 H   0  0  0  0  0  0  0  0  0  0  0  0
    0.8575   -0.0759   -0.5794 H   0  0  0  0  0  0  0  0  0  0  0  0
    4.5700   -0.6990   -0.2266 H   0  0  0  0  0  0  0  0  0  0  0  0
    6.1084   -1.2326    1.6104 H   0  0  0  0  0  0  0  0  0  0  0  0
    7.4302   -0.5082    3.5601 H   0  0  0  0  0  0  0  0  0  0  0  0
  1  2  4  0
  2  3  4  0
  3  4  4  0
  4  5  4  0
  5  6  4  0
  6  7  4  0
  7  8  4  0
  8  9  4  0
  9 10  1  0
 10 11  4  0
 11 12  4  0
 12 13  4  0
 13 14  4  0
 14 15  4  0
 15 16  4  0
 16 17  4  0
 17 18  4  0
 18 19  4  0
 19 20  4  0
 20 21  4  0
 21 22  4  0
 22 23  1  0
 23 24  4  0
 24 25  4  0
 25 26  4  0
 26 27  4  0
 27 28  4  0
 28 29  4  0
 29 30  4  0
 30 31  4  0
 31 32  4  0
 32 33  4  0
 33 34  4  0
 34 35  4  0
 35 36  4  0
 22 37  4  0
 37 38  4  0
 38 39  4  0
 39 40  4  0
 40 41  4  0
  9 42  4  0
 42 43  4  0
 43 44  4  0
 44 45  4  0
 45 46  4  0
 46  1  4  0
 44  3  4  0
 42  5  4  0
 41 10  4  0
 41 14  4  0
 39 16  4  0
 37 18  4  0
 36 23  4  0
 33 24  4  0
 31 26  4  0
  1 47  1  0
  2 48  1  0
  4 49  1  0
  6 50  1  0
  7 51  1  0
  8 52  1  0
 11 53  1  0
 12 54  1  0
 13 55  1  0
 15 56  1  0
 17 57  1  0
 19 58  1  0
 20 59  1  0
 21 60  1  0
 25 61  1  0
 27 62  1  0
 28 63  1  0
 29 64  1  0
 30 65  1  0
 32 66  1  0
 34 67  1  0
 35 68  1  0
 36 69  1  0
 38 70  1  0
 40 71  1  0
 43 72  1  0
 45 73  1  0
 46 74  1  0
M  END
