
     RDKit          3D

 94107  0  0  0  0  0  0  0  0999 V2000
    2.3325   -5.5141    5.8913 C   0  0  0  0  0  0  0  0  0  0  0  0
    2.5748   -5.5638    4.5178 C   0  0  0  0  0  0  0  0  0  0  0  0
    2.7301   -4.3822    3.7746 C   0  0  0  0  0  0  0  0  0  0  0  0
    2.9747   -4.4071    2.3931 C   0  0  0  0  0  0  0  0  0  0  0  0
    3.1288   -3.2401    1.6560 C   0  0  0  0  0  0  0  0  0  0  0  0
    3.3623   -3.3167    0.3331 N   0  0  0  0  0  0  0  0  0  0  0  0
    3.5031   -2.1599   -0.3404 C   0  0  0  0  0  0  0  0  0  0  0  0
    3.7392   -2.1868   -1.7072 C   0  0  0  0  0  0  0  0  0  0  0  0
    3.8913   -1.0121   -2.4606 C   0  0  0  0  0  0  0  0  0  0  0  0
    4.1245   -1.0814   -3.8422 C   0  0  0  0  0  0  0  0  0  0  0  0
    4.2776    0.0760   -4.5996 C   0  0  0  0  0  0  0  0  0  0  0  0
    4.2013    1.3198   -3.9820 C   0  0  0  0  0  0  0  0  0  0  0  0
    3.9703    1.4282   -2.5986 C   0  0  0  0  0  0  0  0  0  0  0  0
    3.9207    2.7802   -2.0025 C   0  0  0  0  0  0  0  0  0  0  0  0
    5.1288    3.3517   -1.5603 C   0  0  0  0  0  0  0  0  0  0  0  0
    5.1536    4.6175   -0.9861 C   0  0  0  0  0  0  0  0  0  0  0  0
    3.9692    5.3340   -0.8452 C   0  0  0  0  0  0  0  0  0  0  0  0
    2.7458    4.7993   -1.2764 C   0  0  0  0  0  0  0  0  0  0  0  0
    1.5606    5.5376   -1.1203 C   0  0  0  0  0  0  0  0  0  0  0  0
    0.3185    5.0333   -1.5358 C   0  0  0  0  0  0  0  0  0  0  0  0
   -0.8671    5.7655   -1.3688 C   0  0  0  0  0  0  0  0  0  0  0  0
   -2.1125    5.2567   -1.7746 C   0  0  0  0  0  0  0  0  0  0  0  0
   -3.2782    6.0125   -1.5792 C   0  0  0  0  0  0  0  0  0  0  0  0
   -4.5219    5.5241   -1.9674 C   0  0  0  0  0  0  0  0  0  0  0  0
   -4.6157    4.2697   -2.5595 C   0  0  0  0  0  0  0  0  0  0  0  0
   -3.4691    3.4817   -2.7742 C   0  0  0  0  0  0  0  0  0  0  0  0
   -3.6446    2.1596   -3.4146 C   0  0  0  0  0  0  0  0  0  0  0  0
   -3.6598    0.9428   -2.6716 C   0  0  0  0  0  0  0  0  0  0  0  0
   -3.5090    0.8784   -1.2671 C   0  0  0  0  0  0  0  0  0  0  0  0
   -3.5070   -0.3201   -0.5644 C   0  0  0  0  0  0  0  0  0  0  0  0
   -3.3431   -0.3098    0.7710 N   0  0  0  0  0  0  0  0  0  0  0  0
   -3.3432   -1.4944    1.4080 C   0  0  0  0  0  0  0  0  0  0  0  0
   -3.1767   -1.5314    2.7864 C   0  0  0  0  0  0  0  0  0  0  0  0
   -3.1714   -2.7406    3.4983 C   0  0  0  0  0  0  0  0  0  0  0  0
   -3.0035   -2.7756    4.8923 C   0  0  0  0  0  0  0  0  0  0  0  0
   -3.0021   -3.9908    5.5789 C   0  0  0  0  0  0  0  0  0  0  0  0
   -3.1681   -5.1837    4.8814 C   0  0  0  0  0  0  0  0  0  0  0  0
   -3.3357   -5.1636    3.4960 C   0  0  0  0  0  0  0  0  0  0  0  0
   -3.3392   -3.9481    2.7923 C   0  0  0  0  0  0  0  0  0  0  0  0
   -3.5061   -3.9033    1.3999 C   0  0  0  0  0  0  0  0  0  0  0  0
   -3.5110   -2.7028    0.7016 C   0  0  0  0  0  0  0  0  0  0  0  0
   -3.6753   -2.7127   -0.6338 N   0  0  0  0  0  0  0  0  0  0  0  0
   -3.6724   -1.5263   -1.2686 C   0  0  0  0  0  0  0  0  0  0  0  0
   -3.8329   -1.4860   -2.6459 C   0  0  0  0  0  0  0  0  0  0  0  0
   -3.8284   -0.2787   -3.3616 C   0  0  0  0  0  0  0  0  0  0  0  0
   -3.9870   -0.2817   -4.7555 C   0  0  0  0  0  0  0  0  0  0  0  0
   -3.9758    0.9076   -5.4775 C   0  0  0  0  0  0  0  0  0  0  0  0
   -3.8051    2.1168   -4.8122 C   0  0  0  0  0  0  0  0  0  0  0  0
   -2.1919    3.9790   -2.3782 C   0  0  0  0  0  0  0  0  0  0  0  0
   -0.9839    3.2607   -2.5484 C   0  0  0  0  0  0  0  0  0  0  0  0
    0.2599    3.7642   -2.1286 C   0  0  0  0  0  0  0  0  0  0  0  0
    1.4451    3.0233   -2.2836 C   0  0  0  0  0  0  0  0  0  0  0  0
    2.7055    3.5127   -1.8652 C   0  0  0  0  0  0  0  0  0  0  0  0
    3.8090    0.2448   -1.8206 C   0  0  0  0  0  0  0  0  0  0  0  0
    3.5668    0.2489   -0.4277 C   0  0  0  0  0  0  0  0  0  0  0  0
    3.4128   -0.9170    0.3125 C   0  0  0  0  0  0  0  0  0  0  0  0
    3.1796   -0.8404    1.6352 N   0  0  0  0  0  0  0  0  0  0  0  0
    3.0368   -1.9949    2.3107 C   0  0  0  0  0  0  0  0  0  0  0  0
    2.7949   -1.9628    3.6779 C   0  0  0  0  0  0  0  0  0  0  0  0
    2.6389   -3.1378    4.4287 C   0  0  0  0  0  0  0  0  0  0  0  0
    2.3948   -3.1027    5.8114 C   0  0  0  0  0  0  0  0  0  0  0  0
    2.2427   -4.2848    6.5375 C   0  0  0  0  0  0  0  0  0  0  0  0
    2.2141   -6.4356    6.4557 H   0  0  0  0  0  0  0  0  0  0  0  0
    2.6416   -6.5346    4.0307 H   0  0  0  0  0  0  0  0  0  0  0  0
    3.0487   -5.3575    1.8690 H   0  0  0  0  0  0  0  0  0  0  0  0
    3.8039   -3.1592   -2.1919 H   0  0  0  0  0  0  0  0  0  0  0  0
    4.1889   -2.0459   -4.3429 H   0  0  0  0  0  0  0  0  0  0  0  0
    4.4589    0.0091   -5.6693 H   0  0  0  0  0  0  0  0  0  0  0  0
    4.3249    2.2194   -4.5832 H   0  0  0  0  0  0  0  0  0  0  0  0
    6.0607    2.7980   -1.6619 H   0  0  0  0  0  0  0  0  0  0  0  0
    6.0936    5.0441   -0.6463 H   0  0  0  0  0  0  0  0  0  0  0  0
    4.0085    6.3219   -0.3906 H   0  0  0  0  0  0  0  0  0  0  0  0
    1.6041    6.5237   -0.6605 H   0  0  0  0  0  0  0  0  0  0  0  0
   -0.8206    6.7509   -0.9071 H   0  0  0  0  0  0  0  0  0  0  0  0
   -3.2260    6.9950   -1.1144 H   0  0  0  0  0  0  0  0  0  0  0  0
   -5.4166    6.1191   -1.8055 H   0  0  0  0  0  0  0  0  0  0  0  0
   -5.5948    3.8958   -2.8544 H   0  0  0  0  0  0  0  0  0  0  0  0
   -3.3789    1.7909   -0.6877 H   0  0  0  0  0  0  0  0  0  0  0  0
   -3.0487   -0.5874    3.3119 H   0  0  0  0  0  0  0  0  0  0  0  0
   -2.8723   -1.8533    5.4547 H   0  0  0  0  0  0  0  0  0  0  0  0
   -2.8714   -4.0048    6.6580 H   0  0  0  0  0  0  0  0  0  0  0  0
   -3.1673   -6.1309    5.4149 H   0  0  0  0  0  0  0  0  0  0  0  0
   -3.4640   -6.1062    2.9678 H   0  0  0  0  0  0  0  0  0  0  0  0
   -3.6364   -4.8242    0.8356 H   0  0  0  0  0  0  0  0  0  0  0  0
   -3.9605   -2.4314   -3.1698 H   0  0  0  0  0  0  0  0  0  0  0  0
   -4.1183   -1.2184   -5.2942 H   0  0  0  0  0  0  0  0  0  0  0  0
   -4.0968    0.8923   -6.5576 H   0  0  0  0  0  0  0  0  0  0  0  0
   -3.7918    3.0409   -5.3883 H   0  0  0  0  0  0  0  0  0  0  0  0
   -1.0087    2.2759   -3.0124 H   0  0  0  0  0  0  0  0  0  0  0  0
    1.3785    2.0350   -2.7367 H   0  0  0  0  0  0  0  0  0  0  0  0
    3.4867    1.1919    0.1108 H   0  0  0  0  0  0  0  0  0  0  0  0
    2.7278   -0.9911    4.1628 H   0  0  0  0  0  0  0  0  0  0  0  0
    2.3214   -2.1512    6.3340 H   0  0  0  0  0  0  0  0  0  0  0  0
    2.0541   -4.2446    7.6074 H   0  0  0  0  0  0  0  0  0  0  0  0
  1  2  4  0
  2  3  4  0
  3  4  4  0
  4  5  4  0
  5  6  4  0
  6  7  4  0
  7  8  4  0
  8  9  4  0
  9 10  4  0
 10 11  4  0
 11 12  4  0
 12 13  4  0
 13 14  1  0
 14 15  4  0
 15 16  4  0
 16 17  4  0
 17 18  4  0
 18 19  4  0
 19 20  4  0
 20 21  4  0
 21 22  4  0
 22 23  4  0
 23 24  4  0
 24 25  4  0
 25 26  4  0
 26 27  1  0
 27 28  4  0
 28 29  4  0
 29 30  4  0
 30 31  4  0
 31 32  4  0
 32 33  4  0
 33 34  4  0
 34 35  4  0
 35 36  4  0
 36 37  4  0
 37 38  4  0
 38 39  4  0
 39 40  4  0
 40 41  4  0
 41 42  4  0
 42 43  4  0
 43 44  4  0
 44 45  4  0
 45 46  4  0
 46 47  4  0
 47 48  4  0
 26 49  4  0
 49 50  4  0
 50 51  4  0
 51 52  4  0
 52 53  4  0
 13 54  4  0
 54 55  4  0
 55 56  4  0
 56 57  4  0
 57 58  4  0
 58 59  4  0
 59 60  4  0
 60 61  4  0
 61 62  4  0
 62  1  4  0
 60  3  4  0
 58  5  4  0
 56  7  4  0
 54  9  4  0
 53 14  4  0
 53 18  4  0
 51 20  4  0
 49 22  4  0
 48 27  4  0
 45 28  4  0
 43 30  4  0
 41 32  4  0
 39 34  4  0
  1 63  1  0
  2 64  1  0
  4 65  1  0
  8 66  1  0
 10 67  1  0
 11 68  1  0
 12 69  1  0
 15 70  1  0
 16 71  1  0
 17 72  1  0
 19 73  1  0
 21 74  1  0
 23 75  1  0
 24 76  1  0
 25 77  1  0
 29 78  1  0
 33 79  1  0
 35 80  1  0
 36 81  1  0
 37 82  1  0
 38 83  1  0
 40 84  1  0
 44 85  1  0
 46 86  1  0
 47 87  1  0
 48 88  1  0
 50 89  1  0
 52 90  1  0
 55 91  1  0
 59 92  1  0
 61 93  1  0
 62 94  1  0
M  END
