
     RDKit          3D

 96107  0  0  0  0  0  0  0  0999 V2000
   -4.7618   -2.1974    1.2296 C   0  0  0  0  0  0  0  0  0  0  0  0
   -3.4270   -2.4507    0.8357 C   0  0  0  0  0  0  0  0  0  0  0  0
   -2.9834   -1.4748   -0.0533 C   0  0  0  0  0  0  0  0  0  0  0  0
   -1.7572   -1.3878   -0.6735 C   0  0  0  0  0  0  0  0  0  0  0  0
   -0.5082   -2.1364   -0.6493 C   0  0  0  0  0  0  0  0  0  0  0  0
    0.1926   -2.3874   -1.8377 C   0  0  0  0  0  0  0  0  0  0  0  0
    1.3875   -3.1114   -1.8235 C   0  0  0  0  0  0  0  0  0  0  0  0
    1.8993   -3.5872   -0.6182 C   0  0  0  0  0  0  0  0  0  0  0  0
    1.2199   -3.3354    0.5720 C   0  0  0  0  0  0  0  0  0  0  0  0
    0.0235   -2.6127    0.5564 C   0  0  0  0  0  0  0  0  0  0  0  0
   -1.7655   -0.2956   -1.5122 O   0  0  0  0  0  0  0  0  0  0  0  0
   -2.9785    0.3396   -1.3875 C   0  0  0  0  0  0  0  0  0  0  0  0
   -3.1087    1.5572   -2.1754 C   0  0  0  0  0  0  0  0  0  0  0  0
   -3.0492    1.4452   -3.5762 C   0  0  0  0  0  0  0  0  0  0  0  0
   -3.1542    2.5712   -4.3920 C   0  0  0  0  0  0  0  0  0  0  0  0
   -3.3126    3.8273   -3.8185 C   0  0  0  0  0  0  0  0  0  0  0  0
   -3.3638    3.9565   -2.4296 C   0  0  0  0  0  0  0  0  0  0  0  0
   -3.2613    2.8334   -1.5828 C   0  0  0  0  0  0  0  0  0  0  0  0
   -3.3122    3.0483   -0.1175 C   0  0  0  0  0  0  0  0  0  0  0  0
   -4.5501    3.4087    0.4520 C   0  0  0  0  0  0  0  0  0  0  0  0
   -4.6814    3.6127    1.8208 C   0  0  0  0  0  0  0  0  0  0  0  0
   -3.5728    3.4663    2.6477 C   0  0  0  0  0  0  0  0  0  0  0  0
   -2.3185    3.1245    2.1204 C   0  0  0  0  0  0  0  0  0  0  0  0
   -1.2108    2.9924    2.9758 C   0  0  0  0  0  0  0  0  0  0  0  0
    0.0629    2.6590    2.4884 C   0  0  0  0  0  0  0  0  0  0  0  0
    1.1713    2.5309    3.3407 C   0  0  0  0  0  0  0  0  0  0  0  0
    2.4470    2.2021    2.8503 C   0  0  0  0  0  0  0  0  0  0  0  0
    3.5333    2.1031    3.7327 C   0  0  0  0  0  0  0  0  0  0  0  0
    4.8076    1.7959    3.2678 C   0  0  0  0  0  0  0  0  0  0  0  0
    5.0089    1.5709    1.9107 C   0  0  0  0  0  0  0  0  0  0  0  0
    3.9408    1.6370    0.9940 C   0  0  0  0  0  0  0  0  0  0  0  0
    4.2315    1.3685   -0.4327 C   0  0  0  0  0  0  0  0  0  0  0  0
    4.9189    2.3542   -1.1711 C   0  0  0  0  0  0  0  0  0  0  0  0
    5.2077    2.1793   -2.5253 C   0  0  0  0  0  0  0  0  0  0  0  0
    4.8105    1.0157   -3.1729 C   0  0  0  0  0  0  0  0  0  0  0  0
    4.1287    0.0268   -2.4644 C   0  0  0  0  0  0  0  0  0  0  0  0
    3.8398    0.1815   -1.0960 C   0  0  0  0  0  0  0  0  0  0  0  0
    3.1223   -0.8969   -0.4283 C   0  0  0  0  0  0  0  0  0  0  0  0
    3.3735   -1.7767    0.5968 C   0  0  0  0  0  0  0  0  0  0  0  0
    4.5369   -1.8972    1.3499 C   0  0  0  0  0  0  0  0  0  0  0  0
    4.3947   -2.9067    2.3289 C   0  0  0  0  0  0  0  0  0  0  0  0
    3.2070   -3.6992    2.5073 C   0  0  0  0  0  0  0  0  0  0  0  0
    2.0396   -3.5714    1.7195 C   0  0  0  0  0  0  0  0  0  0  0  0
    2.2006   -2.5765    0.7581 C   0  0  0  0  0  0  0  0  0  0  0  0
    1.2995   -2.1701   -0.2002 C   0  0  0  0  0  0  0  0  0  0  0  0
   -0.0352   -2.5676   -0.6294 C   0  0  0  0  0  0  0  0  0  0  0  0
   -0.9797   -1.5996   -0.9990 C   0  0  0  0  0  0  0  0  0  0  0  0
   -2.2615   -1.9719   -1.4126 C   0  0  0  0  0  0  0  0  0  0  0  0
   -2.6131   -3.3189   -1.4656 C   0  0  0  0  0  0  0  0  0  0  0  0
   -1.6829   -4.2930   -1.1094 C   0  0  0  0  0  0  0  0  0  0  0  0
   -0.4010   -3.9191   -0.6953 C   0  0  0  0  0  0  0  0  0  0  0  0
    1.8630   -1.1424   -0.9245 O   0  0  0  0  0  0  0  0  0  0  0  0
    2.6375    1.9780    1.4653 C   0  0  0  0  0  0  0  0  0  0  0  0
    1.5090    2.1208    0.6224 C   0  0  0  0  0  0  0  0  0  0  0  0
    0.2343    2.4561    1.1132 C   0  0  0  0  0  0  0  0  0  0  0  0
   -0.8723    2.5947    0.2564 C   0  0  0  0  0  0  0  0  0  0  0  0
   -2.1683    2.9172    0.7275 C   0  0  0  0  0  0  0  0  0  0  0  0
   -3.7658   -0.3729   -0.5162 C   0  0  0  0  0  0  0  0  0  0  0  0
   -5.0812   -0.1098   -0.1483 C   0  0  0  0  0  0  0  0  0  0  0  0
   -5.5470   -1.0850    0.7628 C   0  0  0  0  0  0  0  0  0  0  0  0
   -5.2315   -2.8910    1.9283 H   0  0  0  0  0  0  0  0  0  0  0  0
   -2.8585   -3.3012    1.1825 H   0  0  0  0  0  0  0  0  0  0  0  0
   -0.1950   -2.0207   -2.7859 H   0  0  0  0  0  0  0  0  0  0  0  0
    1.9175   -3.2999   -2.7535 H   0  0  0  0  0  0  0  0  0  0  0  0
    2.8309   -4.1470   -0.6057 H   0  0  0  0  0  0  0  0  0  0  0  0
    1.6237   -3.6922    1.5157 H   0  0  0  0  0  0  0  0  0  0  0  0
   -0.4781   -2.4063    1.4989 H   0  0  0  0  0  0  0  0  0  0  0  0
   -2.9170    0.4670   -4.0354 H   0  0  0  0  0  0  0  0  0  0  0  0
   -3.1060    2.4656   -5.4725 H   0  0  0  0  0  0  0  0  0  0  0  0
   -3.3870    4.7094   -4.4490 H   0  0  0  0  0  0  0  0  0  0  0  0
   -3.4711    4.9504   -1.9978 H   0  0  0  0  0  0  0  0  0  0  0  0
   -5.4277    3.5184   -0.1826 H   0  0  0  0  0  0  0  0  0  0  0  0
   -5.6459    3.8809    2.2431 H   0  0  0  0  0  0  0  0  0  0  0  0
   -3.6956    3.6264    3.7170 H   0  0  0  0  0  0  0  0  0  0  0  0
   -1.3413    3.1522    4.0448 H   0  0  0  0  0  0  0  0  0  0  0  0
    1.0386    2.6979    4.4085 H   0  0  0  0  0  0  0  0  0  0  0  0
    3.3932    2.2720    4.7983 H   0  0  0  0  0  0  0  0  0  0  0  0
    5.6405    1.7286    3.9621 H   0  0  0  0  0  0  0  0  0  0  0  0
    6.0099    1.3262    1.5603 H   0  0  0  0  0  0  0  0  0  0  0  0
    5.2206    3.2806   -0.6847 H   0  0  0  0  0  0  0  0  0  0  0  0
    5.7329    2.9568   -3.0736 H   0  0  0  0  0  0  0  0  0  0  0  0
    5.0247    0.8771   -4.2294 H   0  0  0  0  0  0  0  0  0  0  0  0
    3.8136   -0.8768   -2.9840 H   0  0  0  0  0  0  0  0  0  0  0  0
    5.4352   -1.3116    1.2250 H   0  0  0  0  0  0  0  0  0  0  0  0
    5.2358   -3.0960    2.9967 H   0  0  0  0  0  0  0  0  0  0  0  0
    3.2106   -4.4451    3.3033 H   0  0  0  0  0  0  0  0  0  0  0  0
    1.1539   -4.1703    1.8735 H   0  0  0  0  0  0  0  0  0  0  0  0
   -0.7195   -0.5439   -0.9596 H   0  0  0  0  0  0  0  0  0  0  0  0
   -2.9824   -1.2087   -1.6939 H   0  0  0  0  0  0  0  0  0  0  0  0
   -3.6093   -3.6088   -1.7893 H   0  0  0  0  0  0  0  0  0  0  0  0
   -1.9510   -5.3450   -1.1597 H   0  0  0  0  0  0  0  0  0  0  0  0
    0.3154   -4.6972   -0.4438 H   0  0  0  0  0  0  0  0  0  0  0  0
    1.6198    1.9687   -0.4502 H   0  0  0  0  0  0  0  0  0  0  0  0
   -0.7127    2.4394   -0.8095 H   0  0  0  0  0  0  0  0  0  0  0  0
   -5.6840    0.7142   -0.4999 H   0  0  0  0  0  0  0  0  0  0  0  0
   -6.5681   -0.9936    1.1349 H   0  0  0  0  0  0  0  0  0  0  0  0
  1  2  4  0
  2  3  4  0
  3  4  4  0
  4  5  1  0
  5  6  4  0
  6  7  4  0
  7  8  4  0
  8  9  4  0
  9 10  4  0
  4 11  4  0
 11 12  4  0
 12 13  1  0
 13 14  4  0
 14 15  4  0
 15 16  4  0
 16 17  4  0
 17 18  4  0
 18 19  1  0
 19 20  4  0
 20 21  4  0
 21 22  4  0
 22 23  4  0
 23 24  4  0
 24 25  4  0
 25 26  4  0
 26 27  4  0
 27 28  4  0
 28 29  4  0
 29 30  4  0
 30 31  4  0
 31 32  1  0
 32 33  4  0
 33 34  4  0
 34 35  4  0
 35 36  4  0
 36 37  4  0
 37 38  1  0
 38 39  4  0
 39 40  4  0
 40 41  4  0
 41 42  4  0
 42 43  4  0
 43 44  4  0
 44 45  4  0
 45 46  1  0
 46 47  4  0
 47 48  4  0
 48 49  4  0
 49 50  4  0
 50 51  4  0
 45 52  4  0
 31 53  4  0
 53 54  4  0
 54 55  4  0
 55 56  4  0
 56 57  4  0
 12 58  4  0
 58 59  4  0
 59 60  4  0
 60  1  4  0
 58  3  4  0
 10  5  4  0
 18 13  4  0
 57 19  4  0
 57 23  4  0
 55 25  4  0
 53 27  4  0
 37 32  4  0
 52 38  4  0
 44 39  4  0
 51 46  4  0
  1 61  1  0
  2 62  1  0
  6 63  1  0
  7 64  1  0
  8 65  1  0
  9 66  1  0
 10 67  1  0
 14 68  1  0
 15 69  1  0
 16 70  1  0
 17 71  1  0
 20 72  1  0
 21 73  1  0
 22 74  1  0
 24 75  1  0
 26 76  1  0
 28 77  1  0
 29 78  1  0
 30 79  1  0
 33 80  1  0
 34 81  1  0
 35 82  1  0
 36 83  1  0
 40 84  1  0
 41 85  1  0
 42 86  1  0
 43 87  1  0
 47 88  1  0
 48 89  1  0
 49 90  1  0
 50 91  1  0
 51 92  1  0
 54 93  1  0
 56 94  1  0
 59 95  1  0
 60 96  1  0
M  END
