
     RDKit          3D

 96107  0  0  0  0  0  0  0  0999 V2000
   -2.6251   -5.4356    0.9012 C   0  0  0  0  0  0  0  0  0  0  0  0
   -3.7944   -4.9570    1.5358 C   0  0  0  0  0  0  0  0  0  0  0  0
   -4.1272   -3.6880    1.0673 C   0  0  0  0  0  0  0  0  0  0  0  0
   -5.1850   -2.8950    1.4503 C   0  0  0  0  0  0  0  0  0  0  0  0
   -6.2740   -2.9755    2.4154 C   0  0  0  0  0  0  0  0  0  0  0  0
   -6.0746   -3.5253    3.6889 C   0  0  0  0  0  0  0  0  0  0  0  0
   -7.1259   -3.5990    4.6072 C   0  0  0  0  0  0  0  0  0  0  0  0
   -8.3882   -3.1199    4.2635 C   0  0  0  0  0  0  0  0  0  0  0  0
   -8.5999   -2.5624    3.0048 C   0  0  0  0  0  0  0  0  0  0  0  0
   -7.5482   -2.4884    2.0881 C   0  0  0  0  0  0  0  0  0  0  0  0
   -5.1492   -1.7335    0.7129 O   0  0  0  0  0  0  0  0  0  0  0  0
   -4.0669   -1.7785   -0.1358 C   0  0  0  0  0  0  0  0  0  0  0  0
   -3.9172   -0.6148   -0.9999 C   0  0  0  0  0  0  0  0  0  0  0  0
   -3.5154   -0.7504   -2.3342 C   0  0  0  0  0  0  0  0  0  0  0  0
   -3.3718    0.3738   -3.1551 C   0  0  0  0  0  0  0  0  0  0  0  0
   -3.6316    1.6598   -2.6618 C   0  0  0  0  0  0  0  0  0  0  0  0
   -3.4894    2.8403   -3.5275 C   0  0  0  0  0  0  0  0  0  0  0  0
   -4.6037    3.2398   -4.2883 C   0  0  0  0  0  0  0  0  0  0  0  0
   -4.5392    4.3478   -5.1256 C   0  0  0  0  0  0  0  0  0  0  0  0
   -3.3570    5.0756   -5.2161 C   0  0  0  0  0  0  0  0  0  0  0  0
   -2.2247    4.7078   -4.4733 C   0  0  0  0  0  0  0  0  0  0  0  0
   -1.0403    5.4557   -4.5788 C   0  0  0  0  0  0  0  0  0  0  0  0
    0.1125    5.1179   -3.8530 C   0  0  0  0  0  0  0  0  0  0  0  0
    1.2938    5.8673   -3.9610 C   0  0  0  0  0  0  0  0  0  0  0  0
    2.4507    5.5308   -3.2389 C   0  0  0  0  0  0  0  0  0  0  0  0
    3.6112    6.3072   -3.3739 C   0  0  0  0  0  0  0  0  0  0  0  0
    4.7682    5.9929   -2.6689 C   0  0  0  0  0  0  0  0  0  0  0  0
    4.7790    4.8926   -1.8191 C   0  0  0  0  0  0  0  0  0  0  0  0
    3.6355    4.0877   -1.6578 C   0  0  0  0  0  0  0  0  0  0  0  0
    3.7291    2.9341   -0.7481 C   0  0  0  0  0  0  0  0  0  0  0  0
    3.9387    1.6416   -1.2471 C   0  0  0  0  0  0  0  0  0  0  0  0
    4.0485    0.5496   -0.3794 C   0  0  0  0  0  0  0  0  0  0  0  0
    3.9515    0.7207    1.0084 C   0  0  0  0  0  0  0  0  0  0  0  0
    4.0747   -0.4242    1.9025 C   0  0  0  0  0  0  0  0  0  0  0  0
    3.5065   -0.8374    3.0865 C   0  0  0  0  0  0  0  0  0  0  0  0
    2.5057   -0.2075    3.8232 C   0  0  0  0  0  0  0  0  0  0  0  0
    2.2066   -0.9416    4.9943 C   0  0  0  0  0  0  0  0  0  0  0  0
    2.8525   -2.1720    5.3648 C   0  0  0  0  0  0  0  0  0  0  0  0
    3.8587   -2.8037    4.5986 C   0  0  0  0  0  0  0  0  0  0  0  0
    4.1340   -2.0726    3.4452 C   0  0  0  0  0  0  0  0  0  0  0  0
    5.0396   -2.3692    2.4522 C   0  0  0  0  0  0  0  0  0  0  0  0
    5.9707   -3.4508    2.1567 C   0  0  0  0  0  0  0  0  0  0  0  0
    7.2280   -3.1716    1.6009 C   0  0  0  0  0  0  0  0  0  0  0  0
    8.1289   -4.2008    1.3158 C   0  0  0  0  0  0  0  0  0  0  0  0
    7.7805   -5.5236    1.5782 C   0  0  0  0  0  0  0  0  0  0  0  0
    6.5315   -5.8179    2.1207 C   0  0  0  0  0  0  0  0  0  0  0  0
    5.6313   -4.7874    2.4065 C   0  0  0  0  0  0  0  0  0  0  0  0
    5.0058   -1.3615    1.5157 O   0  0  0  0  0  0  0  0  0  0  0  0
    3.7529    2.0136    1.5077 C   0  0  0  0  0  0  0  0  0  0  0  0
    3.6408    3.1068    0.6402 C   0  0  0  0  0  0  0  0  0  0  0  0
    2.4455    4.4090   -2.3753 C   0  0  0  0  0  0  0  0  0  0  0  0
    1.2418    3.6694   -2.2741 C   0  0  0  0  0  0  0  0  0  0  0  0
    0.0837    4.0062   -2.9994 C   0  0  0  0  0  0  0  0  0  0  0  0
   -1.1026    3.2573   -2.8921 C   0  0  0  0  0  0  0  0  0  0  0  0
   -2.2755    3.5822   -3.6167 C   0  0  0  0  0  0  0  0  0  0  0  0
   -4.0462    1.7947   -1.3304 C   0  0  0  0  0  0  0  0  0  0  0  0
   -4.1878    0.6704   -0.5104 C   0  0  0  0  0  0  0  0  0  0  0  0
   -3.4048   -2.9687    0.0634 C   0  0  0  0  0  0  0  0  0  0  0  0
   -2.2460   -3.4200   -0.5644 C   0  0  0  0  0  0  0  0  0  0  0  0
   -1.8871   -4.7037   -0.0928 C   0  0  0  0  0  0  0  0  0  0  0  0
   -2.2557   -6.4230    1.1817 H   0  0  0  0  0  0  0  0  0  0  0  0
   -4.3395   -5.5263    2.2746 H   0  0  0  0  0  0  0  0  0  0  0  0
   -5.0929   -3.8837    3.9883 H   0  0  0  0  0  0  0  0  0  0  0  0
   -6.9559   -4.0243    5.5928 H   0  0  0  0  0  0  0  0  0  0  0  0
   -9.2051   -3.1754    4.9782 H   0  0  0  0  0  0  0  0  0  0  0  0
   -9.5816   -2.1826    2.7344 H   0  0  0  0  0  0  0  0  0  0  0  0
   -7.7287   -2.0494    1.1087 H   0  0  0  0  0  0  0  0  0  0  0  0
   -3.3288   -1.7337   -2.7588 H   0  0  0  0  0  0  0  0  0  0  0  0
   -3.0574    0.2419   -4.1884 H   0  0  0  0  0  0  0  0  0  0  0  0
   -5.5340    2.6781   -4.2234 H   0  0  0  0  0  0  0  0  0  0  0  0
   -5.4088    4.6441   -5.7058 H   0  0  0  0  0  0  0  0  0  0  0  0
   -3.3258    5.9399   -5.8764 H   0  0  0  0  0  0  0  0  0  0  0  0
   -1.0140    6.3199   -5.2408 H   0  0  0  0  0  0  0  0  0  0  0  0
    1.3123    6.7317   -4.6229 H   0  0  0  0  0  0  0  0  0  0  0  0
    3.6226    7.1710   -4.0357 H   0  0  0  0  0  0  0  0  0  0  0  0
    5.6603    6.6023   -2.7838 H   0  0  0  0  0  0  0  0  0  0  0  0
    5.6921    4.6517   -1.2773 H   0  0  0  0  0  0  0  0  0  0  0  0
    4.0214    1.4778   -2.3199 H   0  0  0  0  0  0  0  0  0  0  0  0
    4.2091   -0.4426   -0.7975 H   0  0  0  0  0  0  0  0  0  0  0  0
    2.0023    0.7111    3.5589 H   0  0  0  0  0  0  0  0  0  0  0  0
    1.4382   -0.5521    5.6639 H   0  0  0  0  0  0  0  0  0  0  0  0
    2.5434   -2.6459    6.2978 H   0  0  0  0  0  0  0  0  0  0  0  0
    4.3380   -3.7241    4.8991 H   0  0  0  0  0  0  0  0  0  0  0  0
    7.5143   -2.1430    1.3898 H   0  0  0  0  0  0  0  0  0  0  0  0
    9.1001   -3.9670    0.8877 H   0  0  0  0  0  0  0  0  0  0  0  0
    8.4798   -6.3250    1.3542 H   0  0  0  0  0  0  0  0  0  0  0  0
    6.2534   -6.8504    2.3156 H   0  0  0  0  0  0  0  0  0  0  0  0
    4.6536   -5.0433    2.8070 H   0  0  0  0  0  0  0  0  0  0  0  0
    3.7053    2.1923    2.5789 H   0  0  0  0  0  0  0  0  0  0  0  0
    3.4895    4.1014    1.0556 H   0  0  0  0  0  0  0  0  0  0  0  0
    1.2015    2.8062   -1.6110 H   0  0  0  0  0  0  0  0  0  0  0  0
   -1.1097    2.3960   -2.2250 H   0  0  0  0  0  0  0  0  0  0  0  0
   -4.2618    2.7808   -0.9236 H   0  0  0  0  0  0  0  0  0  0  0  0
   -4.5106    0.8057    0.5202 H   0  0  0  0  0  0  0  0  0  0  0  0
   -1.6729   -2.8833   -1.3064 H   0  0  0  0  0  0  0  0  0  0  0  0
   -0.9937   -5.1726   -0.5079 H   0  0  0  0  0  0  0  0  0  0  0  0
  1  2  4  0
  2  3  4  0
  3  4  4  0
  4  5  1  0
  5  6  4  0
  6  7  4  0
  7  8  4  0
  8  9  4  0
  9 10  4  0
  4 11  4  0
 11 12  4  0
 12 13  1  0
 13 14  4  0
 14 15  4  0
 15 16  4  0
 16 17  1  0
 17 18  4  0
 18 19  4  0
 19 20  4  0
 20 21  4  0
 21 22  4  0
 22 23  4  0
 23 24  4  0
 24 25  4  0
 25 26  4  0
 26 27  4  0
 27 28  4  0
 28 29  4  0
 29 30  1  0
 30 31  4  0
 31 32  4  0
 32 33  4  0
 33 34  1  0
 34 35  4  0
 35 36  4  0
 36 37  4  0
 37 38  4  0
 38 39  4  0
 39 40  4  0
 40 41  4  0
 41 42  1  0
 42 43  4  0
 43 44  4  0
 44 45  4  0
 45 46  4  0
 46 47  4  0
 41 48  4  0
 33 49  4  0
 49 50  4  0
 29 51  4  0
 51 52  4  0
 52 53  4  0
 53 54  4  0
 54 55  4  0
 16 56  4  0
 56 57  4  0
 12 58  4  0
 58 59  4  0
 59 60  4  0
 60  1  4  0
 58  3  4  0
 10  5  4  0
 57 13  4  0
 55 17  4  0
 55 21  4  0
 53 23  4  0
 51 25  4  0
 50 30  4  0
 48 34  4  0
 40 35  4  0
 47 42  4  0
  1 61  1  0
  2 62  1  0
  6 63  1  0
  7 64  1  0
  8 65  1  0
  9 66  1  0
 10 67  1  0
 14 68  1  0
 15 69  1  0
 18 70  1  0
 19 71  1  0
 20 72  1  0
 22 73  1  0
 24 74  1  0
 26 75  1  0
 27 76  1  0
 28 77  1  0
 31 78  1  0
 32 79  1  0
 36 80  1  0
 37 81  1  0
 38 82  1  0
 39 83  1  0
 43 84  1  0
 44 85  1  0
 45 86  1  0
 46 87  1  0
 47 88  1  0
 49 89  1  0
 50 90  1  0
 52 91  1  0
 54 92  1  0
 56 93  1  0
 57 94  1  0
 59 95  1  0
 60 96  1  0
M  END
