
     RDKit          3D

 96107  0  0  0  0  0  0  0  0999 V2000
    3.3333    5.4268    0.4871 C   0  0  0  0  0  0  0  0  0  0  0  0
    4.5528    4.7131    0.4346 C   0  0  0  0  0  0  0  0  0  0  0  0
    4.3756    3.3982    0.8597 C   0  0  0  0  0  0  0  0  0  0  0  0
    5.3195    2.3990    0.9404 C   0  0  0  0  0  0  0  0  0  0  0  0
    6.7353    2.2499    0.6243 C   0  0  0  0  0  0  0  0  0  0  0  0
    7.2958    2.8622   -0.5052 C   0  0  0  0  0  0  0  0  0  0  0  0
    8.6559    2.7180   -0.7962 C   0  0  0  0  0  0  0  0  0  0  0  0
    9.4709    1.9547    0.0368 C   0  0  0  0  0  0  0  0  0  0  0  0
    8.9267    1.3305    1.1569 C   0  0  0  0  0  0  0  0  0  0  0  0
    7.5674    1.4754    1.4464 C   0  0  0  0  0  0  0  0  0  0  0  0
    4.7150    1.2684    1.4429 O   0  0  0  0  0  0  0  0  0  0  0  0
    3.3862    1.5397    1.6751 C   0  0  0  0  0  0  0  0  0  0  0  0
    2.6221    0.4345    2.2393 C   0  0  0  0  0  0  0  0  0  0  0  0
    1.6730    0.6531    3.2460 C   0  0  0  0  0  0  0  0  0  0  0  0
    0.9417   -0.4098    3.7797 C   0  0  0  0  0  0  0  0  0  0  0  0
    1.1545   -1.7063    3.3126 C   0  0  0  0  0  0  0  0  0  0  0  0
    2.1008   -1.9572    2.3085 C   0  0  0  0  0  0  0  0  0  0  0  0
    2.3111   -3.3245    1.8040 C   0  0  0  0  0  0  0  0  0  0  0  0
    3.1222   -4.1953    2.5523 C   0  0  0  0  0  0  0  0  0  0  0  0
    3.3458   -5.5025    2.1318 C   0  0  0  0  0  0  0  0  0  0  0  0
    2.7555   -5.9631    0.9578 C   0  0  0  0  0  0  0  0  0  0  0  0
    1.9360   -5.1259    0.1856 C   0  0  0  0  0  0  0  0  0  0  0  0
    1.3326   -5.6085   -0.9905 C   0  0  0  0  0  0  0  0  0  0  0  0
    0.4954   -4.7990   -1.7768 C   0  0  0  0  0  0  0  0  0  0  0  0
   -0.1320   -5.2754   -2.9404 C   0  0  0  0  0  0  0  0  0  0  0  0
   -0.9918   -4.4632   -3.7038 C   0  0  0  0  0  0  0  0  0  0  0  0
   -1.6131   -4.9766   -4.8515 C   0  0  0  0  0  0  0  0  0  0  0  0
   -2.4776   -4.1918   -5.6092 C   0  0  0  0  0  0  0  0  0  0  0  0
   -2.7410   -2.8811   -5.2239 C   0  0  0  0  0  0  0  0  0  0  0  0
   -2.1402   -2.3254   -4.0793 C   0  0  0  0  0  0  0  0  0  0  0  0
   -2.4937   -0.9410   -3.6997 C   0  0  0  0  0  0  0  0  0  0  0  0
   -2.1975    0.1402   -4.5425 C   0  0  0  0  0  0  0  0  0  0  0  0
   -2.5139    1.4468   -4.1656 C   0  0  0  0  0  0  0  0  0  0  0  0
   -3.1130    1.6928   -2.9292 C   0  0  0  0  0  0  0  0  0  0  0  0
   -3.4104    0.6368   -2.0605 C   0  0  0  0  0  0  0  0  0  0  0  0
   -3.9713    0.8940   -0.7421 C   0  0  0  0  0  0  0  0  0  0  0  0
   -3.7537    0.4253    0.5336 C   0  0  0  0  0  0  0  0  0  0  0  0
   -2.8003   -0.5000    0.9552 C   0  0  0  0  0  0  0  0  0  0  0  0
   -2.8703   -0.6918    2.3538 C   0  0  0  0  0  0  0  0  0  0  0  0
   -3.7974   -0.0101    3.2165 C   0  0  0  0  0  0  0  0  0  0  0  0
   -4.7515    0.9349    2.7717 C   0  0  0  0  0  0  0  0  0  0  0  0
   -4.6756    1.1036    1.3906 C   0  0  0  0  0  0  0  0  0  0  0  0
   -5.4152    1.9528    0.5977 C   0  0  0  0  0  0  0  0  0  0  0  0
   -6.5107    2.8950    0.7920 C   0  0  0  0  0  0  0  0  0  0  0  0
   -6.5443    4.1024    0.0789 C   0  0  0  0  0  0  0  0  0  0  0  0
   -7.5890    5.0124    0.2599 C   0  0  0  0  0  0  0  0  0  0  0  0
   -8.6171    4.7238    1.1542 C   0  0  0  0  0  0  0  0  0  0  0  0
   -8.6035    3.5244    1.8629 C   0  0  0  0  0  0  0  0  0  0  0  0
   -7.5576    2.6148    1.6810 C   0  0  0  0  0  0  0  0  0  0  0  0
   -4.9687    1.8392   -0.7008 O   0  0  0  0  0  0  0  0  0  0  0  0
   -3.1283   -0.6728   -2.4725 C   0  0  0  0  0  0  0  0  0  0  0  0
   -1.2362   -3.1248   -3.3123 C   0  0  0  0  0  0  0  0  0  0  0  0
   -0.5573   -2.6546   -2.1636 C   0  0  0  0  0  0  0  0  0  0  0  0
    0.2757   -3.4728   -1.3852 C   0  0  0  0  0  0  0  0  0  0  0  0
    0.8807   -2.9873   -0.2150 C   0  0  0  0  0  0  0  0  0  0  0  0
    1.7102   -3.7912    0.5988 C   0  0  0  0  0  0  0  0  0  0  0  0
    2.8329   -0.8773    1.7869 C   0  0  0  0  0  0  0  0  0  0  0  0
    3.1367    2.8438    1.3130 C   0  0  0  0  0  0  0  0  0  0  0  0
    1.9241    3.5281    1.3600 C   0  0  0  0  0  0  0  0  0  0  0  0
    2.0839    4.8627    0.9220 C   0  0  0  0  0  0  0  0  0  0  0  0
    3.3368    6.4733    0.1787 H   0  0  0  0  0  0  0  0  0  0  0  0
    5.4828    5.1596    0.1137 H   0  0  0  0  0  0  0  0  0  0  0  0
    6.6760    3.4421   -1.1842 H   0  0  0  0  0  0  0  0  0  0  0  0
    9.0759    3.1967   -1.6771 H   0  0  0  0  0  0  0  0  0  0  0  0
   10.5278    1.8412   -0.1901 H   0  0  0  0  0  0  0  0  0  0  0  0
    9.5569    0.7288    1.8065 H   0  0  0  0  0  0  0  0  0  0  0  0
    7.1576    0.9806    2.3250 H   0  0  0  0  0  0  0  0  0  0  0  0
    1.5100    1.6525    3.6428 H   0  0  0  0  0  0  0  0  0  0  0  0
    0.2137   -0.2272    4.5659 H   0  0  0  0  0  0  0  0  0  0  0  0
    0.5791   -2.5279    3.7349 H   0  0  0  0  0  0  0  0  0  0  0  0
    3.5888   -3.8471    3.4721 H   0  0  0  0  0  0  0  0  0  0  0  0
    3.9798   -6.1613    2.7190 H   0  0  0  0  0  0  0  0  0  0  0  0
    2.9400   -6.9900    0.6487 H   0  0  0  0  0  0  0  0  0  0  0  0
    1.5098   -6.6386   -1.2956 H   0  0  0  0  0  0  0  0  0  0  0  0
    0.0427   -6.3044   -3.2506 H   0  0  0  0  0  0  0  0  0  0  0  0
   -1.4297   -6.0023   -5.1652 H   0  0  0  0  0  0  0  0  0  0  0  0
   -2.9551   -4.6051   -6.4934 H   0  0  0  0  0  0  0  0  0  0  0  0
   -3.4380   -2.2892   -5.8148 H   0  0  0  0  0  0  0  0  0  0  0  0
   -1.7051   -0.0308   -5.4978 H   0  0  0  0  0  0  0  0  0  0  0  0
   -2.2797    2.2755   -4.8289 H   0  0  0  0  0  0  0  0  0  0  0  0
   -3.3331    2.7178   -2.6378 H   0  0  0  0  0  0  0  0  0  0  0  0
   -2.0807   -1.0079    0.3295 H   0  0  0  0  0  0  0  0  0  0  0  0
   -2.1734   -1.3968    2.8094 H   0  0  0  0  0  0  0  0  0  0  0  0
   -3.7531   -0.2320    4.2838 H   0  0  0  0  0  0  0  0  0  0  0  0
   -5.4227    1.4538    3.4406 H   0  0  0  0  0  0  0  0  0  0  0  0
   -5.7493    4.3429   -0.6240 H   0  0  0  0  0  0  0  0  0  0  0  0
   -7.5979    5.9431   -0.3010 H   0  0  0  0  0  0  0  0  0  0  0  0
   -9.4317    5.4297    1.2932 H   0  0  0  0  0  0  0  0  0  0  0  0
   -9.4107    3.2912    2.5522 H   0  0  0  0  0  0  0  0  0  0  0  0
   -7.5819    1.6749    2.2267 H   0  0  0  0  0  0  0  0  0  0  0  0
   -3.3922   -1.5068   -1.8232 H   0  0  0  0  0  0  0  0  0  0  0  0
   -0.6794   -1.6179   -1.8564 H   0  0  0  0  0  0  0  0  0  0  0  0
    0.6881   -1.9547    0.0732 H   0  0  0  0  0  0  0  0  0  0  0  0
    3.5699   -1.0630    1.0059 H   0  0  0  0  0  0  0  0  0  0  0  0
    0.9745    3.1202    1.6751 H   0  0  0  0  0  0  0  0  0  0  0  0
    1.2066    5.5113    0.9162 H   0  0  0  0  0  0  0  0  0  0  0  0
  1  2  4  0
  2  3  4  0
  3  4  4  0
  4  5  1  0
  5  6  4  0
  6  7  4  0
  7  8  4  0
  8  9  4  0
  9 10  4  0
  4 11  4  0
 11 12  4  0
 12 13  1  0
 13 14  4  0
 14 15  4  0
 15 16  4  0
 16 17  4  0
 17 18  1  0
 18 19  4  0
 19 20  4  0
 20 21  4  0
 21 22  4  0
 22 23  4  0
 23 24  4  0
 24 25  4  0
 25 26  4  0
 26 27  4  0
 27 28  4  0
 28 29  4  0
 29 30  4  0
 30 31  1  0
 31 32  4  0
 32 33  4  0
 33 34  4  0
 34 35  4  0
 35 36  1  0
 36 37  4  0
 37 38  4  0
 38 39  4  0
 39 40  4  0
 40 41  4  0
 41 42  4  0
 42 43  4  0
 43 44  1  0
 44 45  4  0
 45 46  4  0
 46 47  4  0
 47 48  4  0
 48 49  4  0
 43 50  4  0
 35 51  4  0
 30 52  4  0
 52 53  4  0
 53 54  4  0
 54 55  4  0
 55 56  4  0
 17 57  4  0
 12 58  4  0
 58 59  4  0
 59 60  4  0
 60  1  4  0
 58  3  4  0
 10  5  4  0
 57 13  4  0
 56 18  4  0
 56 22  4  0
 54 24  4  0
 52 26  4  0
 51 31  4  0
 50 36  4  0
 42 37  4  0
 49 44  4  0
  1 61  1  0
  2 62  1  0
  6 63  1  0
  7 64  1  0
  8 65  1  0
  9 66  1  0
 10 67  1  0
 14 68  1  0
 15 69  1  0
 16 70  1  0
 19 71  1  0
 20 72  1  0
 21 73  1  0
 23 74  1  0
 25 75  1  0
 27 76  1  0
 28 77  1  0
 29 78  1  0
 32 79  1  0
 33 80  1  0
 34 81  1  0
 38 82  1  0
 39 83  1  0
 40 84  1  0
 41 85  1  0
 45 86  1  0
 46 87  1  0
 47 88  1  0
 48 89  1  0
 49 90  1  0
 51 91  1  0
 53 92  1  0
 55 93  1  0
 57 94  1  0
 59 95  1  0
 60 96  1  0
M  END
