
     RDKit          3D

 96107  0  0  0  0  0  0  0  0999 V2000
    3.6351    3.6304    0.2537 C   0  0  0  0  0  0  0  0  0  0  0  0
    4.0016    3.0298    1.4763 C   0  0  0  0  0  0  0  0  0  0  0  0
    4.2332    1.6651    1.3166 C   0  0  0  0  0  0  0  0  0  0  0  0
    4.6202    0.7693    2.2872 C   0  0  0  0  0  0  0  0  0  0  0  0
    4.9595    0.8212    3.7036 C   0  0  0  0  0  0  0  0  0  0  0  0
    5.7085    1.8817    4.2314 C   0  0  0  0  0  0  0  0  0  0  0  0
    6.0273    1.9224    5.5916 C   0  0  0  0  0  0  0  0  0  0  0  0
    5.6041    0.9005    6.4388 C   0  0  0  0  0  0  0  0  0  0  0  0
    4.8672   -0.1650    5.9274 C   0  0  0  0  0  0  0  0  0  0  0  0
    4.5498   -0.2051    4.5675 C   0  0  0  0  0  0  0  0  0  0  0  0
    4.7088   -0.4769    1.7179 O   0  0  0  0  0  0  0  0  0  0  0  0
    4.3830   -0.3803    0.3872 C   0  0  0  0  0  0  0  0  0  0  0  0
    4.4175   -1.6512   -0.3161 C   0  0  0  0  0  0  0  0  0  0  0  0
    3.2639   -2.1799   -0.9061 C   0  0  0  0  0  0  0  0  0  0  0  0
    3.3105   -3.3993   -1.5854 C   0  0  0  0  0  0  0  0  0  0  0  0
    4.5083   -4.1074   -1.6670 C   0  0  0  0  0  0  0  0  0  0  0  0
    5.6593   -3.5998   -1.0671 C   0  0  0  0  0  0  0  0  0  0  0  0
    5.6131   -2.3782   -0.3921 C   0  0  0  0  0  0  0  0  0  0  0  0
    4.0969    0.9349    0.0854 C   0  0  0  0  0  0  0  0  0  0  0  0
    3.7390    1.5211   -1.1415 C   0  0  0  0  0  0  0  0  0  0  0  0
    3.6291    0.8293   -2.4229 C   0  0  0  0  0  0  0  0  0  0  0  0
    4.8142    0.4715   -3.0912 C   0  0  0  0  0  0  0  0  0  0  0  0
    4.7770   -0.1808   -4.3188 C   0  0  0  0  0  0  0  0  0  0  0  0
    3.5514   -0.4816   -4.9042 C   0  0  0  0  0  0  0  0  0  0  0  0
    2.3477   -0.1374   -4.2726 C   0  0  0  0  0  0  0  0  0  0  0  0
    1.1198   -0.4574   -4.8761 C   0  0  0  0  0  0  0  0  0  0  0  0
   -0.1050   -0.1401   -4.2686 C   0  0  0  0  0  0  0  0  0  0  0  0
   -1.3321   -0.4682   -4.8659 C   0  0  0  0  0  0  0  0  0  0  0  0
   -2.5577   -0.1598   -4.2518 C   0  0  0  0  0  0  0  0  0  0  0  0
   -3.7644   -0.5171   -4.8708 C   0  0  0  0  0  0  0  0  0  0  0  0
   -4.9874   -0.2295   -4.2732 C   0  0  0  0  0  0  0  0  0  0  0  0
   -5.0189    0.4220   -3.0452 C   0  0  0  0  0  0  0  0  0  0  0  0
   -3.8302    0.7938   -2.3910 C   0  0  0  0  0  0  0  0  0  0  0  0
   -3.9348    1.4789   -1.1067 C   0  0  0  0  0  0  0  0  0  0  0  0
   -3.8276    2.8890   -0.9587 C   0  0  0  0  0  0  0  0  0  0  0  0
   -3.9433    3.5872    0.2906 C   0  0  0  0  0  0  0  0  0  0  0  0
   -4.1918    2.9561    1.5284 C   0  0  0  0  0  0  0  0  0  0  0  0
   -4.3110    1.5762    1.3745 C   0  0  0  0  0  0  0  0  0  0  0  0
   -4.5638    0.6460    2.3575 C   0  0  0  0  0  0  0  0  0  0  0  0
   -4.8285    0.6607    3.7909 C   0  0  0  0  0  0  0  0  0  0  0  0
   -5.6235    1.6575    4.3727 C   0  0  0  0  0  0  0  0  0  0  0  0
   -5.8692    1.6616    5.7488 C   0  0  0  0  0  0  0  0  0  0  0  0
   -5.3271    0.6656    6.5582 C   0  0  0  0  0  0  0  0  0  0  0  0
   -4.5439   -0.3380    5.9934 C   0  0  0  0  0  0  0  0  0  0  0  0
   -4.2989   -0.3410    4.6181 C   0  0  0  0  0  0  0  0  0  0  0  0
   -4.5704   -0.6021    1.7834 O   0  0  0  0  0  0  0  0  0  0  0  0
   -4.3279   -0.4712    0.4390 C   0  0  0  0  0  0  0  0  0  0  0  0
   -4.2859   -1.7340   -0.2757 C   0  0  0  0  0  0  0  0  0  0  0  0
   -3.0909   -2.2009   -0.8350 C   0  0  0  0  0  0  0  0  0  0  0  0
   -3.0598   -3.4140   -1.5255 C   0  0  0  0  0  0  0  0  0  0  0  0
   -4.2206   -4.1754   -1.6505 C   0  0  0  0  0  0  0  0  0  0  0  0
   -5.4122   -3.7273   -1.0827 C   0  0  0  0  0  0  0  0  0  0  0  0
   -5.4440   -2.5125   -0.3948 C   0  0  0  0  0  0  0  0  0  0  0  0
   -4.1760    0.8642    0.1335 C   0  0  0  0  0  0  0  0  0  0  0  0
   -2.5752    0.5050   -3.0025 C   0  0  0  0  0  0  0  0  0  0  0  0
   -1.3278    0.8304   -2.4176 C   0  0  0  0  0  0  0  0  0  0  0  0
   -0.1025    0.5152   -3.0297 C   0  0  0  0  0  0  0  0  0  0  0  0
    1.1252    0.8361   -2.4253 C   0  0  0  0  0  0  0  0  0  0  0  0
    2.3708    0.5259   -3.0222 C   0  0  0  0  0  0  0  0  0  0  0  0
    3.5178    2.9181   -0.9869 C   0  0  0  0  0  0  0  0  0  0  0  0
    3.4304    4.7017    0.2453 H   0  0  0  0  0  0  0  0  0  0  0  0
    4.0773    3.5820    2.4023 H   0  0  0  0  0  0  0  0  0  0  0  0
    6.0702    2.6776    3.5853 H   0  0  0  0  0  0  0  0  0  0  0  0
    6.6125    2.7485    5.9871 H   0  0  0  0  0  0  0  0  0  0  0  0
    5.8544    0.9305    7.4958 H   0  0  0  0  0  0  0  0  0  0  0  0
    4.5406   -0.9675    6.5836 H   0  0  0  0  0  0  0  0  0  0  0  0
    3.9753   -1.0454    4.1818 H   0  0  0  0  0  0  0  0  0  0  0  0
    2.3189   -1.6458   -0.8417 H   0  0  0  0  0  0  0  0  0  0  0  0
    2.4095   -3.7931   -2.0485 H   0  0  0  0  0  0  0  0  0  0  0  0
    4.5428   -5.0573   -2.1935 H   0  0  0  0  0  0  0  0  0  0  0  0
    6.5924   -4.1538   -1.1217 H   0  0  0  0  0  0  0  0  0  0  0  0
    6.5152   -1.9913    0.0766 H   0  0  0  0  0  0  0  0  0  0  0  0
    5.7804    0.6979   -2.6438 H   0  0  0  0  0  0  0  0  0  0  0  0
    5.7027   -0.4586   -4.8152 H   0  0  0  0  0  0  0  0  0  0  0  0
    3.5446   -0.9958   -5.8630 H   0  0  0  0  0  0  0  0  0  0  0  0
    1.1159   -0.9695   -5.8371 H   0  0  0  0  0  0  0  0  0  0  0  0
   -1.3325   -0.9803   -5.8267 H   0  0  0  0  0  0  0  0  0  0  0  0
   -3.7613   -1.0321   -5.8292 H   0  0  0  0  0  0  0  0  0  0  0  0
   -5.9147   -0.5176   -4.7607 H   0  0  0  0  0  0  0  0  0  0  0  0
   -5.9824    0.6368   -2.5862 H   0  0  0  0  0  0  0  0  0  0  0  0
   -3.6425    3.4874   -1.8531 H   0  0  0  0  0  0  0  0  0  0  0  0
   -3.8326    4.6723    0.2776 H   0  0  0  0  0  0  0  0  0  0  0  0
   -4.2672    3.4998    2.4595 H   0  0  0  0  0  0  0  0  0  0  0  0
   -6.0790    2.4299    3.7584 H   0  0  0  0  0  0  0  0  0  0  0  0
   -6.4908    2.4385    6.1865 H   0  0  0  0  0  0  0  0  0  0  0  0
   -5.5208    0.6668    7.6276 H   0  0  0  0  0  0  0  0  0  0  0  0
   -4.1252   -1.1217    6.6192 H   0  0  0  0  0  0  0  0  0  0  0  0
   -3.6875   -1.1339    4.1908 H   0  0  0  0  0  0  0  0  0  0  0  0
   -2.1755   -1.6226   -0.7377 H   0  0  0  0  0  0  0  0  0  0  0  0
   -2.1282   -3.7617   -1.9637 H   0  0  0  0  0  0  0  0  0  0  0  0
   -4.1951   -5.1205   -2.1861 H   0  0  0  0  0  0  0  0  0  0  0  0
   -6.3163   -4.3232   -1.1728 H   0  0  0  0  0  0  0  0  0  0  0  0
   -6.3768   -2.1725    0.0493 H   0  0  0  0  0  0  0  0  0  0  0  0
   -1.3063    1.3324   -1.4513 H   0  0  0  0  0  0  0  0  0  0  0  0
    1.1059    1.3318   -1.4557 H   0  0  0  0  0  0  0  0  0  0  0  0
    3.2379    3.4951   -1.8708 H   0  0  0  0  0  0  0  0  0  0  0  0
  1  2  4  0
  2  3  4  0
  3  4  4  0
  4  5  1  0
  5  6  4  0
  6  7  4  0
  7  8  4  0
  8  9  4  0
  9 10  4  0
  4 11  4  0
 11 12  4  0
 12 13  1  0
 13 14  4  0
 14 15  4  0
 15 16  4  0
 16 17  4  0
 17 18  4  0
 12 19  4  0
 19 20  4  0
 20 21  1  0
 21 22  4  0
 22 23  4  0
 23 24  4  0
 24 25  4  0
 25 26  4  0
 26 27  4  0
 27 28  4  0
 28 29  4  0
 29 30  4  0
 30 31  4  0
 31 32  4  0
 32 33  4  0
 33 34  1  0
 34 35  4  0
 35 36  4  0
 36 37  4  0
 37 38  4  0
 38 39  4  0
 39 40  1  0
 40 41  4  0
 41 42  4  0
 42 43  4  0
 43 44  4  0
 44 45  4  0
 39 46  4  0
 46 47  4  0
 47 48  1  0
 48 49  4  0
 49 50  4  0
 50 51  4  0
 51 52  4  0
 52 53  4  0
 47 54  4  0
 33 55  4  0
 55 56  4  0
 56 57  4  0
 57 58  4  0
 58 59  4  0
 20 60  4  0
 60  1  4  0
 19  3  4  0
 59 21  4  0
 10  5  4  0
 18 13  4  0
 59 25  4  0
 57 27  4  0
 55 29  4  0
 54 34  4  0
 54 38  4  0
 45 40  4  0
 53 48  4  0
  1 61  1  0
  2 62  1  0
  6 63  1  0
  7 64  1  0
  8 65  1  0
  9 66  1  0
 10 67  1  0
 14 68  1  0
 15 69  1  0
 16 70  1  0
 17 71  1  0
 18 72  1  0
 22 73  1  0
 23 74  1  0
 24 75  1  0
 26 76  1  0
 28 77  1  0
 30 78  1  0
 31 79  1  0
 32 80  1  0
 35 81  1  0
 36 82  1  0
 37 83  1  0
 41 84  1  0
 42 85  1  0
 43 86  1  0
 44 87  1  0
 45 88  1  0
 49 89  1  0
 50 90  1  0
 51 91  1  0
 52 92  1  0
 53 93  1  0
 56 94  1  0
 58 95  1  0
 60 96  1  0
M  END
