
     RDKit          3D

 90103  0  0  0  0  0  0  0  0999 V2000
   -6.3886   -4.7788   -2.6174 C   0  0  0  0  0  0  0  0  0  0  0  0
   -6.5769   -3.5554   -3.2469 C   0  0  0  0  0  0  0  0  0  0  0  0
   -6.0734   -2.3947   -2.6572 C   0  0  0  0  0  0  0  0  0  0  0  0
   -5.3895   -2.4360   -1.4481 C   0  0  0  0  0  0  0  0  0  0  0  0
   -4.9282   -1.2983   -0.9009 N   0  0  0  0  0  0  0  0  0  0  0  0
   -4.2660   -1.3608    0.2783 C   0  0  0  0  0  0  0  0  0  0  0  0
   -4.0753   -2.6114    0.8956 C   0  0  0  0  0  0  0  0  0  0  0  0
   -4.5363   -3.7542    0.3573 N   0  0  0  0  0  0  0  0  0  0  0  0
   -5.1957   -3.6753   -0.8113 C   0  0  0  0  0  0  0  0  0  0  0  0
   -5.6975   -4.8279   -1.4058 C   0  0  0  0  0  0  0  0  0  0  0  0
   -3.3912   -2.6833    2.0919 C   0  0  0  0  0  0  0  0  0  0  0  0
   -2.8937   -1.5616    2.7231 C   0  0  0  0  0  0  0  0  0  0  0  0
   -2.2242   -1.7258    3.8770 N   0  0  0  0  0  0  0  0  0  0  0  0
   -1.7388   -0.6271    4.4803 C   0  0  0  0  0  0  0  0  0  0  0  0
   -1.0282   -0.7450    5.6694 C   0  0  0  0  0  0  0  0  0  0  0  0
   -0.5115    0.3764    6.3201 C   0  0  0  0  0  0  0  0  0  0  0  0
   -0.7106    1.6369    5.7725 C   0  0  0  0  0  0  0  0  0  0  0  0
   -1.4243    1.7631    4.5803 C   0  0  0  0  0  0  0  0  0  0  0  0
   -1.9401    0.6506    3.9263 C   0  0  0  0  0  0  0  0  0  0  0  0
   -2.6185    0.8050    2.7767 N   0  0  0  0  0  0  0  0  0  0  0  0
   -3.0903   -0.2935    2.1442 C   0  0  0  0  0  0  0  0  0  0  0  0
   -3.7600   -0.2048    0.9077 C   0  0  0  0  0  0  0  0  0  0  0  0
   -3.9223    1.1181    0.2444 C   0  0  0  0  0  0  0  0  0  0  0  0
   -5.2010    1.7093    0.2330 C   0  0  0  0  0  0  0  0  0  0  0  0
   -5.4231    2.9282   -0.3985 C   0  0  0  0  0  0  0  0  0  0  0  0
   -4.3699    3.5781   -1.0346 C   0  0  0  0  0  0  0  0  0  0  0  0
   -3.0797    3.0270   -1.0431 C   0  0  0  0  0  0  0  0  0  0  0  0
   -2.0312    3.6993   -1.6968 C   0  0  0  0  0  0  0  0  0  0  0  0
   -0.7229    3.1885   -1.7146 C   0  0  0  0  0  0  0  0  0  0  0  0
    0.3267    3.8527   -2.3691 C   0  0  0  0  0  0  0  0  0  0  0  0
    1.6372    3.3418   -2.3734 C   0  0  0  0  0  0  0  0  0  0  0  0
    2.6541    4.0330   -3.0480 C   0  0  0  0  0  0  0  0  0  0  0  0
    3.9590    3.5520   -3.0628 C   0  0  0  0  0  0  0  0  0  0  0  0
    4.2670    2.3717   -2.3952 C   0  0  0  0  0  0  0  0  0  0  0  0
    3.2771    1.6469   -1.7009 C   0  0  0  0  0  0  0  0  0  0  0  0
    3.6869    0.4041   -0.9888 C   0  0  0  0  0  0  0  0  0  0  0  0
    4.4390    0.5011    0.1994 C   0  0  0  0  0  0  0  0  0  0  0  0
    4.8014    1.6978    0.7158 N   0  0  0  0  0  0  0  0  0  0  0  0
    5.5102    1.7249    1.8569 C   0  0  0  0  0  0  0  0  0  0  0  0
    5.8809    2.9444    2.4099 C   0  0  0  0  0  0  0  0  0  0  0  0
    6.6199    3.0094    3.5915 C   0  0  0  0  0  0  0  0  0  0  0  0
    6.9933    1.8342    4.2305 C   0  0  0  0  0  0  0  0  0  0  0  0
    6.6213    0.6060    3.6818 C   0  0  0  0  0  0  0  0  0  0  0  0
    5.8843    0.5336    2.5050 C   0  0  0  0  0  0  0  0  0  0  0  0
    5.5382   -0.6632    2.0009 N   0  0  0  0  0  0  0  0  0  0  0  0
    4.8229   -0.6801    0.8629 C   0  0  0  0  0  0  0  0  0  0  0  0
    4.4624   -1.9046    0.3392 C   0  0  0  0  0  0  0  0  0  0  0  0
    3.7310   -2.0187   -0.8250 C   0  0  0  0  0  0  0  0  0  0  0  0
    3.4233   -3.2517   -1.2642 N   0  0  0  0  0  0  0  0  0  0  0  0
    2.7024   -3.3502   -2.3948 C   0  0  0  0  0  0  0  0  0  0  0  0
    2.3559   -4.6015   -2.8937 C   0  0  0  0  0  0  0  0  0  0  0  0
    1.6024   -4.7338   -4.0611 C   0  0  0  0  0  0  0  0  0  0  0  0
    1.1913   -3.5956   -4.7425 C   0  0  0  0  0  0  0  0  0  0  0  0
    1.5430   -2.3374   -4.2531 C   0  0  0  0  0  0  0  0  0  0  0  0
    2.2928   -2.1985   -3.0923 C   0  0  0  0  0  0  0  0  0  0  0  0
    2.6175   -0.9716   -2.6519 N   0  0  0  0  0  0  0  0  0  0  0  0
    3.3322   -0.8552   -1.5108 C   0  0  0  0  0  0  0  0  0  0  0  0
    1.9328    2.1339   -1.6952 C   0  0  0  0  0  0  0  0  0  0  0  0
    0.8584    1.4801   -1.0450 C   0  0  0  0  0  0  0  0  0  0  0  0
   -0.4561    1.9808   -1.0590 C   0  0  0  0  0  0  0  0  0  0  0  0
   -1.5093    1.2958   -0.4282 C   0  0  0  0  0  0  0  0  0  0  0  0
   -2.8357    1.7917   -0.3960 C   0  0  0  0  0  0  0  0  0  0  0  0
   -6.7737   -5.6924   -3.0634 H   0  0  0  0  0  0  0  0  0  0  0  0
   -7.1111   -3.4989   -4.1919 H   0  0  0  0  0  0  0  0  0  0  0  0
   -6.2171   -1.4339   -3.1463 H   0  0  0  0  0  0  0  0  0  0  0  0
   -5.5441   -5.7835   -0.9107 H   0  0  0  0  0  0  0  0  0  0  0  0
   -3.2387   -3.6569    2.5527 H   0  0  0  0  0  0  0  0  0  0  0  0
   -0.8745   -1.7334    6.0956 H   0  0  0  0  0  0  0  0  0  0  0  0
    0.0423    0.2613    7.2482 H   0  0  0  0  0  0  0  0  0  0  0  0
   -0.3143    2.5205    6.2665 H   0  0  0  0  0  0  0  0  0  0  0  0
   -1.5814    2.7478    4.1460 H   0  0  0  0  0  0  0  0  0  0  0  0
   -6.0376    1.2063    0.7135 H   0  0  0  0  0  0  0  0  0  0  0  0
   -6.4171    3.3671   -0.4006 H   0  0  0  0  0  0  0  0  0  0  0  0
   -4.5653    4.5275   -1.5283 H   0  0  0  0  0  0  0  0  0  0  0  0
   -2.2362    4.6430   -2.1994 H   0  0  0  0  0  0  0  0  0  0  0  0
    0.1179    4.7866   -2.8884 H   0  0  0  0  0  0  0  0  0  0  0  0
    2.4338    4.9604   -3.5720 H   0  0  0  0  0  0  0  0  0  0  0  0
    4.7364    4.0980   -3.5895 H   0  0  0  0  0  0  0  0  0  0  0  0
    5.2956    2.0158   -2.4077 H   0  0  0  0  0  0  0  0  0  0  0  0
    5.5822    3.8614    1.9071 H   0  0  0  0  0  0  0  0  0  0  0  0
    6.8986    3.9744    4.0066 H   0  0  0  0  0  0  0  0  0  0  0  0
    7.5692    1.8681    5.1519 H   0  0  0  0  0  0  0  0  0  0  0  0
    6.9098   -0.3162    4.1803 H   0  0  0  0  0  0  0  0  0  0  0  0
    4.7652   -2.8098    0.8610 H   0  0  0  0  0  0  0  0  0  0  0  0
    2.6805   -5.4917   -2.3600 H   0  0  0  0  0  0  0  0  0  0  0  0
    1.3399   -5.7215   -4.4310 H   0  0  0  0  0  0  0  0  0  0  0  0
    0.5981   -3.6786   -5.6494 H   0  0  0  0  0  0  0  0  0  0  0  0
    1.2239   -1.4424   -4.7825 H   0  0  0  0  0  0  0  0  0  0  0  0
    1.0401    0.5487   -0.5137 H   0  0  0  0  0  0  0  0  0  0  0  0
   -1.2772    0.3522    0.0597 H   0  0  0  0  0  0  0  0  0  0  0  0
  1  2  4  0
  2  3  4  0
  3  4  4  0
  4  5  4  0
  5  6  4  0
  6  7  4  0
  7  8  4  0
  8  9  4  0
  9 10  4  0
  7 11  4  0
 11 12  4  0
 12 13  4  0
 13 14  4  0
 14 15  4  0
 15 16  4  0
 16 17  4  0
 17 18  4  0
 18 19  4  0
 19 20  4  0
 20 21  4  0
 21 22  4  0
 22 23  1  0
 23 24  4  0
 24 25  4  0
 25 26  4  0
 26 27  4  0
 27 28  4  0
 28 29  4  0
 29 30  4  0
 30 31  4  0
 31 32  4  0
 32 33  4  0
 33 34  4  0
 34 35  4  0
 35 36  1  0
 36 37  4  0
 37 38  4  0
 38 39  4  0
 39 40  4  0
 40 41  4  0
 41 42  4  0
 42 43  4  0
 43 44  4  0
 44 45  4  0
 45 46  4  0
 46 47  4  0
 47 48  4  0
 48 49  4  0
 49 50  4  0
 50 51  4  0
 51 52  4  0
 52 53  4  0
 53 54  4  0
 54 55  4  0
 55 56  4  0
 56 57  4  0
 35 58  4  0
 58 59  4  0
 59 60  4  0
 60 61  4  0
 61 62  4  0
 10  1  4  0
 21 12  4  0
 62 23  4  0
  9  4  4  0
 19 14  4  0
 62 27  4  0
 22  6  4  0
 60 29  4  0
 58 31  4  0
 57 36  4  0
 46 37  4  0
 57 48  4  0
 44 39  4  0
 55 50  4  0
  1 63  1  0
  2 64  1  0
  3 65  1  0
 10 66  1  0
 11 67  1  0
 15 68  1  0
 16 69  1  0
 17 70  1  0
 18 71  1  0
 24 72  1  0
 25 73  1  0
 26 74  1  0
 28 75  1  0
 30 76  1  0
 32 77  1  0
 33 78  1  0
 34 79  1  0
 40 80  1  0
 41 81  1  0
 42 82  1  0
 43 83  1  0
 47 84  1  0
 51 85  1  0
 52 86  1  0
 53 87  1  0
 54 88  1  0
 59 89  1  0
 61 90  1  0
M  END
