
     RDKit          3D

 90103  0  0  0  0  0  0  0  0999 V2000
   -0.7819   -9.8262    4.7914 C   0  0  0  0  0  0  0  0  0  0  0  0
    0.3369   -9.0068    4.6342 C   0  0  0  0  0  0  0  0  0  0  0  0
    0.4967   -8.2084    3.5078 C   0  0  0  0  0  0  0  0  0  0  0  0
    1.5907   -7.4334    3.3893 N   0  0  0  0  0  0  0  0  0  0  0  0
    1.7006   -6.6780    2.2828 C   0  0  0  0  0  0  0  0  0  0  0  0
    2.8120   -5.8682    2.1153 C   0  0  0  0  0  0  0  0  0  0  0  0
    2.9742   -5.0700    0.9941 C   0  0  0  0  0  0  0  0  0  0  0  0
    4.0694   -4.3021    0.8727 N   0  0  0  0  0  0  0  0  0  0  0  0
    4.1855   -3.5456   -0.2347 C   0  0  0  0  0  0  0  0  0  0  0  0
    5.3152   -2.7519   -0.3727 C   0  0  0  0  0  0  0  0  0  0  0  0
    5.5140   -1.9600   -1.4990 C   0  0  0  0  0  0  0  0  0  0  0  0
    4.5639   -1.9693   -2.5109 C   0  0  0  0  0  0  0  0  0  0  0  0
    3.4022   -2.7586   -2.3998 C   0  0  0  0  0  0  0  0  0  0  0  0
    2.4473   -2.7850   -3.5339 C   0  0  0  0  0  0  0  0  0  0  0  0
    2.3806   -3.9640   -4.3049 C   0  0  0  0  0  0  0  0  0  0  0  0
    1.5514   -4.0550   -5.4164 C   0  0  0  0  0  0  0  0  0  0  0  0
    0.7767   -2.9624   -5.7857 C   0  0  0  0  0  0  0  0  0  0  0  0
    0.8105   -1.7720   -5.0456 C   0  0  0  0  0  0  0  0  0  0  0  0
    0.0231   -0.6830   -5.4508 C   0  0  0  0  0  0  0  0  0  0  0  0
    0.0298    0.5324   -4.7521 C   0  0  0  0  0  0  0  0  0  0  0  0
   -0.7390    1.6240   -5.1808 C   0  0  0  0  0  0  0  0  0  0  0  0
   -0.7221    2.8519   -4.5006 C   0  0  0  0  0  0  0  0  0  0  0  0
   -1.4967    3.9180   -4.9792 C   0  0  0  0  0  0  0  0  0  0  0  0
   -1.4945    5.1486   -4.3343 C   0  0  0  0  0  0  0  0  0  0  0  0
   -0.7109    5.3293   -3.2010 C   0  0  0  0  0  0  0  0  0  0  0  0
    0.0798    4.2837   -2.6828 C   0  0  0  0  0  0  0  0  0  0  0  0
    0.9064    4.5671   -1.4844 C   0  0  0  0  0  0  0  0  0  0  0  0
    0.3149    4.8421   -0.2329 C   0  0  0  0  0  0  0  0  0  0  0  0
   -1.0304    4.8649   -0.0688 N   0  0  0  0  0  0  0  0  0  0  0  0
   -1.5287    5.1380    1.1477 C   0  0  0  0  0  0  0  0  0  0  0  0
   -2.9004    5.1630    1.3398 C   0  0  0  0  0  0  0  0  0  0  0  0
   -3.4604    5.4375    2.5767 C   0  0  0  0  0  0  0  0  0  0  0  0
   -4.7977    5.4534    2.7144 N   0  0  0  0  0  0  0  0  0  0  0  0
   -5.2945    5.7250    3.9352 C   0  0  0  0  0  0  0  0  0  0  0  0
   -6.6706    5.7515    4.1286 C   0  0  0  0  0  0  0  0  0  0  0  0
   -7.2232    6.0288    5.3797 C   0  0  0  0  0  0  0  0  0  0  0  0
   -6.3845    6.2842    6.4565 C   0  0  0  0  0  0  0  0  0  0  0  0
   -5.0013    6.2601    6.2719 C   0  0  0  0  0  0  0  0  0  0  0  0
   -4.4416    5.9848    5.0298 C   0  0  0  0  0  0  0  0  0  0  0  0
   -3.1034    5.9702    4.8892 N   0  0  0  0  0  0  0  0  0  0  0  0
   -2.6102    5.6979    3.6686 C   0  0  0  0  0  0  0  0  0  0  0  0
   -1.2389    5.6713    3.4740 C   0  0  0  0  0  0  0  0  0  0  0  0
   -0.6806    5.3967    2.2361 C   0  0  0  0  0  0  0  0  0  0  0  0
    0.6547    5.3807    2.0943 N   0  0  0  0  0  0  0  0  0  0  0  0
    1.1529    5.1108    0.8743 C   0  0  0  0  0  0  0  0  0  0  0  0
    2.5308    5.1082    0.7150 C   0  0  0  0  0  0  0  0  0  0  0  0
    3.1184    4.8572   -0.5199 C   0  0  0  0  0  0  0  0  0  0  0  0
    2.3086    4.5939   -1.6157 C   0  0  0  0  0  0  0  0  0  0  0  0
    0.0743    3.0129   -3.3403 C   0  0  0  0  0  0  0  0  0  0  0  0
    0.8197    1.8846   -2.9075 C   0  0  0  0  0  0  0  0  0  0  0  0
    0.8220    0.6591   -3.6037 C   0  0  0  0  0  0  0  0  0  0  0  0
    1.6024   -0.4392   -3.1884 C   0  0  0  0  0  0  0  0  0  0  0  0
    1.6373   -1.6660   -3.9001 C   0  0  0  0  0  0  0  0  0  0  0  0
    3.2019   -3.5531   -1.2515 C   0  0  0  0  0  0  0  0  0  0  0  0
    2.1028   -4.3316   -1.1078 N   0  0  0  0  0  0  0  0  0  0  0  0
    1.9838   -5.0835   -0.0014 C   0  0  0  0  0  0  0  0  0  0  0  0
    0.8723   -5.8950    0.1639 C   0  0  0  0  0  0  0  0  0  0  0  0
    0.7086   -6.6945    1.2840 C   0  0  0  0  0  0  0  0  0  0  0  0
   -0.3841   -7.4704    1.3989 N   0  0  0  0  0  0  0  0  0  0  0  0
   -0.4970   -8.2282    2.5054 C   0  0  0  0  0  0  0  0  0  0  0  0
   -1.6075   -9.0481    2.6707 C   0  0  0  0  0  0  0  0  0  0  0  0
   -1.7586   -9.8478    3.8046 C   0  0  0  0  0  0  0  0  0  0  0  0
   -0.8852  -10.4429    5.6808 H   0  0  0  0  0  0  0  0  0  0  0  0
    1.1035   -8.9889    5.4052 H   0  0  0  0  0  0  0  0  0  0  0  0
    3.5795   -5.8603    2.8852 H   0  0  0  0  0  0  0  0  0  0  0  0
    6.0627   -2.7594    0.4178 H   0  0  0  0  0  0  0  0  0  0  0  0
    6.4098   -1.3512   -1.5902 H   0  0  0  0  0  0  0  0  0  0  0  0
    4.7298   -1.3684   -3.4043 H   0  0  0  0  0  0  0  0  0  0  0  0
    2.9866   -4.8266   -4.0321 H   0  0  0  0  0  0  0  0  0  0  0  0
    1.5118   -4.9742   -5.9941 H   0  0  0  0  0  0  0  0  0  0  0  0
    0.1392   -3.0489   -6.6635 H   0  0  0  0  0  0  0  0  0  0  0  0
   -0.6041   -0.7800   -6.3356 H   0  0  0  0  0  0  0  0  0  0  0  0
   -1.3579    1.5179   -6.0707 H   0  0  0  0  0  0  0  0  0  0  0  0
   -2.1154    3.7961   -5.8659 H   0  0  0  0  0  0  0  0  0  0  0  0
   -2.1025    5.9654   -4.7125 H   0  0  0  0  0  0  0  0  0  0  0  0
   -0.7210    6.3000   -2.7075 H   0  0  0  0  0  0  0  0  0  0  0  0
   -3.5546    4.9584    0.4959 H   0  0  0  0  0  0  0  0  0  0  0  0
   -7.3246    5.5506    3.2835 H   0  0  0  0  0  0  0  0  0  0  0  0
   -8.3027    6.0438    5.5077 H   0  0  0  0  0  0  0  0  0  0  0  0
   -6.7997    6.5016    7.4374 H   0  0  0  0  0  0  0  0  0  0  0  0
   -4.3428    6.4597    7.1140 H   0  0  0  0  0  0  0  0  0  0  0  0
   -0.5814    5.8685    4.3168 H   0  0  0  0  0  0  0  0  0  0  0  0
    3.1614    5.3148    1.5769 H   0  0  0  0  0  0  0  0  0  0  0  0
    4.2000    4.8683   -0.6243 H   0  0  0  0  0  0  0  0  0  0  0  0
    2.7684    4.4041   -2.5847 H   0  0  0  0  0  0  0  0  0  0  0  0
    1.4226    1.9574   -2.0045 H   0  0  0  0  0  0  0  0  0  0  0  0
    2.2008   -0.3300   -2.2859 H   0  0  0  0  0  0  0  0  0  0  0  0
    0.1087   -5.9067   -0.6100 H   0  0  0  0  0  0  0  0  0  0  0  0
   -2.3707   -9.0616    1.8962 H   0  0  0  0  0  0  0  0  0  0  0  0
   -2.6353  -10.4817    3.9121 H   0  0  0  0  0  0  0  0  0  0  0  0
  1  2  4  0
  2  3  4  0
  3  4  4  0
  4  5  4  0
  5  6  4  0
  6  7  4  0
  7  8  4  0
  8  9  4  0
  9 10  4  0
 10 11  4  0
 11 12  4  0
 12 13  4  0
 13 14  1  0
 14 15  4  0
 15 16  4  0
 16 17  4  0
 17 18  4  0
 18 19  4  0
 19 20  4  0
 20 21  4  0
 21 22  4  0
 22 23  4  0
 23 24  4  0
 24 25  4  0
 25 26  4  0
 26 27  1  0
 27 28  4  0
 28 29  4  0
 29 30  4  0
 30 31  4  0
 31 32  4  0
 32 33  4  0
 33 34  4  0
 34 35  4  0
 35 36  4  0
 36 37  4  0
 37 38  4  0
 38 39  4  0
 39 40  4  0
 40 41  4  0
 41 42  4  0
 42 43  4  0
 43 44  4  0
 44 45  4  0
 45 46  4  0
 46 47  4  0
 47 48  4  0
 26 49  4  0
 49 50  4  0
 50 51  4  0
 51 52  4  0
 52 53  4  0
 13 54  4  0
 54 55  4  0
 55 56  4  0
 56 57  4  0
 57 58  4  0
 58 59  4  0
 59 60  4  0
 60 61  4  0
 61 62  4  0
 62  1  4  0
 60  3  4  0
 58  5  4  0
 56  7  4  0
 54  9  4  0
 53 14  4  0
 53 18  4  0
 51 20  4  0
 49 22  4  0
 48 27  4  0
 45 28  4  0
 43 30  4  0
 41 32  4  0
 39 34  4  0
  1 63  1  0
  2 64  1  0
  6 65  1  0
 10 66  1  0
 11 67  1  0
 12 68  1  0
 15 69  1  0
 16 70  1  0
 17 71  1  0
 19 72  1  0
 21 73  1  0
 23 74  1  0
 24 75  1  0
 25 76  1  0
 31 77  1  0
 35 78  1  0
 36 79  1  0
 37 80  1  0
 38 81  1  0
 42 82  1  0
 46 83  1  0
 47 84  1  0
 48 85  1  0
 50 86  1  0
 52 87  1  0
 57 88  1  0
 61 89  1  0
 62 90  1  0
M  END
