
     RDKit          3D

 90103  0  0  0  0  0  0  0  0999 V2000
   -3.0946    0.3096    8.4015 C   0  0  0  0  0  0  0  0  0  0  0  0
   -3.0050    1.6513    8.0551 C   0  0  0  0  0  0  0  0  0  0  0  0
   -3.0247    2.0168    6.7084 C   0  0  0  0  0  0  0  0  0  0  0  0
   -3.1323    1.0646    5.7016 C   0  0  0  0  0  0  0  0  0  0  0  0
   -3.1480    1.4539    4.4132 N   0  0  0  0  0  0  0  0  0  0  0  0
   -3.2537    0.4963    3.4761 C   0  0  0  0  0  0  0  0  0  0  0  0
   -3.2725    0.8482    2.1367 C   0  0  0  0  0  0  0  0  0  0  0  0
   -3.3753   -0.1001    1.1328 C   0  0  0  0  0  0  0  0  0  0  0  0
   -3.3831    0.2925   -0.1520 N   0  0  0  0  0  0  0  0  0  0  0  0
   -3.4700   -0.6628   -1.0949 C   0  0  0  0  0  0  0  0  0  0  0  0
   -3.4627   -0.3048   -2.4367 C   0  0  0  0  0  0  0  0  0  0  0  0
   -3.5228   -1.2635   -3.4596 C   0  0  0  0  0  0  0  0  0  0  0  0
   -3.4491   -0.8588   -4.8722 C   0  0  0  0  0  0  0  0  0  0  0  0
   -4.6348   -0.8254   -5.6262 C   0  0  0  0  0  0  0  0  0  0  0  0
   -4.6210   -0.4300   -6.9599 C   0  0  0  0  0  0  0  0  0  0  0  0
   -3.4212   -0.0593   -7.5613 C   0  0  0  0  0  0  0  0  0  0  0  0
   -2.2171   -0.0821   -6.8423 C   0  0  0  0  0  0  0  0  0  0  0  0
   -1.0130    0.3008   -7.4600 C   0  0  0  0  0  0  0  0  0  0  0  0
    0.2078    0.2911   -6.7654 C   0  0  0  0  0  0  0  0  0  0  0  0
    1.4124    0.6848   -7.3694 C   0  0  0  0  0  0  0  0  0  0  0  0
    2.6283    0.6845   -6.6626 C   0  0  0  0  0  0  0  0  0  0  0  0
    3.8110    1.0891   -7.2984 C   0  0  0  0  0  0  0  0  0  0  0  0
    5.0224    1.1011   -6.6144 C   0  0  0  0  0  0  0  0  0  0  0  0
    5.0661    0.7101   -5.2801 C   0  0  0  0  0  0  0  0  0  0  0  0
    3.9028    0.2971   -4.6040 C   0  0  0  0  0  0  0  0  0  0  0  0
    4.0218   -0.0900   -3.1855 C   0  0  0  0  0  0  0  0  0  0  0  0
    3.4393    0.6863   -2.1705 C   0  0  0  0  0  0  0  0  0  0  0  0
    3.5317    0.3353   -0.8288 C   0  0  0  0  0  0  0  0  0  0  0  0
    2.9387    1.1037    0.1030 N   0  0  0  0  0  0  0  0  0  0  0  0
    3.0586    0.7289    1.3887 C   0  0  0  0  0  0  0  0  0  0  0  0
    2.4658    1.4894    2.3839 C   0  0  0  0  0  0  0  0  0  0  0  0
    2.5601    1.1465    3.7232 C   0  0  0  0  0  0  0  0  0  0  0  0
    1.9663    1.9169    4.6512 N   0  0  0  0  0  0  0  0  0  0  0  0
    2.0848    1.5436    5.9389 C   0  0  0  0  0  0  0  0  0  0  0  0
    1.4886    2.3069    6.9359 C   0  0  0  0  0  0  0  0  0  0  0  0
    1.5899    1.9513    8.2817 C   0  0  0  0  0  0  0  0  0  0  0  0
    2.3000    0.8121    8.6368 C   0  0  0  0  0  0  0  0  0  0  0  0
    2.9021    0.0393    7.6429 C   0  0  0  0  0  0  0  0  0  0  0  0
    2.8068    0.3853    6.3001 C   0  0  0  0  0  0  0  0  0  0  0  0
    3.4005   -0.3839    5.3687 N   0  0  0  0  0  0  0  0  0  0  0  0
    3.2800   -0.0086    4.0834 C   0  0  0  0  0  0  0  0  0  0  0  0
    3.8729   -0.7689    3.0882 C   0  0  0  0  0  0  0  0  0  0  0  0
    3.7778   -0.4264    1.7489 C   0  0  0  0  0  0  0  0  0  0  0  0
    4.3687   -1.1980    0.8196 N   0  0  0  0  0  0  0  0  0  0  0  0
    4.2475   -0.8251   -0.4676 C   0  0  0  0  0  0  0  0  0  0  0  0
    4.8333   -1.5928   -1.4641 C   0  0  0  0  0  0  0  0  0  0  0  0
    4.7253   -1.2386   -2.8111 C   0  0  0  0  0  0  0  0  0  0  0  0
    2.6608    0.2764   -5.3068 C   0  0  0  0  0  0  0  0  0  0  0  0
    1.4400   -0.1371   -4.7246 C   0  0  0  0  0  0  0  0  0  0  0  0
    0.2246   -0.1232   -5.4276 C   0  0  0  0  0  0  0  0  0  0  0  0
   -0.9754   -0.5097   -4.8107 C   0  0  0  0  0  0  0  0  0  0  0  0
   -2.2168   -0.4900   -5.4875 C   0  0  0  0  0  0  0  0  0  0  0  0
   -3.6190   -2.6099   -3.1008 C   0  0  0  0  0  0  0  0  0  0  0  0
   -3.6386   -2.9776   -1.7536 C   0  0  0  0  0  0  0  0  0  0  0  0
   -3.5580   -2.0265   -0.7459 C   0  0  0  0  0  0  0  0  0  0  0  0
   -3.5593   -2.4174    0.5415 N   0  0  0  0  0  0  0  0  0  0  0  0
   -3.4645   -1.4609    1.4819 C   0  0  0  0  0  0  0  0  0  0  0  0
   -3.4490   -1.8125    2.8220 C   0  0  0  0  0  0  0  0  0  0  0  0
   -3.3443   -0.8643    3.8269 C   0  0  0  0  0  0  0  0  0  0  0  0
   -3.3289   -1.2562    5.1124 N   0  0  0  0  0  0  0  0  0  0  0  0
   -3.2234   -0.2996    6.0537 C   0  0  0  0  0  0  0  0  0  0  0  0
   -3.2030   -0.6538    7.3977 C   0  0  0  0  0  0  0  0  0  0  0  0
   -3.0806    0.0092    9.4462 H   0  0  0  0  0  0  0  0  0  0  0  0
   -2.9200    2.4136    8.8255 H   0  0  0  0  0  0  0  0  0  0  0  0
   -2.9545    3.0670    6.4349 H   0  0  0  0  0  0  0  0  0  0  0  0
   -3.2006    1.8984    1.8650 H   0  0  0  0  0  0  0  0  0  0  0  0
   -3.3849    0.7512   -2.6905 H   0  0  0  0  0  0  0  0  0  0  0  0
   -5.5822   -1.1020   -5.1669 H   0  0  0  0  0  0  0  0  0  0  0  0
   -5.5457   -0.4052   -7.5300 H   0  0  0  0  0  0  0  0  0  0  0  0
   -3.4343    0.2512   -8.6042 H   0  0  0  0  0  0  0  0  0  0  0  0
   -1.0260    0.6186   -8.5013 H   0  0  0  0  0  0  0  0  0  0  0  0
    1.4011    1.0040   -8.4103 H   0  0  0  0  0  0  0  0  0  0  0  0
    3.7974    1.4028   -8.3404 H   0  0  0  0  0  0  0  0  0  0  0  0
    5.9304    1.4203   -7.1192 H   0  0  0  0  0  0  0  0  0  0  0  0
    6.0203    0.7381   -4.7565 H   0  0  0  0  0  0  0  0  0  0  0  0
    2.8887    1.5894   -2.4306 H   0  0  0  0  0  0  0  0  0  0  0  0
    1.9101    2.3813    2.1054 H   0  0  0  0  0  0  0  0  0  0  0  0
    0.9330    3.1985    6.6554 H   0  0  0  0  0  0  0  0  0  0  0  0
    1.1151    2.5636    9.0444 H   0  0  0  0  0  0  0  0  0  0  0  0
    2.3877    0.5219    9.6808 H   0  0  0  0  0  0  0  0  0  0  0  0
    3.4586   -0.8532    7.9187 H   0  0  0  0  0  0  0  0  0  0  0  0
    4.4282   -1.6612    3.3665 H   0  0  0  0  0  0  0  0  0  0  0  0
    5.3856   -2.4879   -1.1867 H   0  0  0  0  0  0  0  0  0  0  0  0
    5.1870   -1.8718   -3.5661 H   0  0  0  0  0  0  0  0  0  0  0  0
    1.4250   -0.4764   -3.6900 H   0  0  0  0  0  0  0  0  0  0  0  0
   -0.9353   -0.8292   -3.7704 H   0  0  0  0  0  0  0  0  0  0  0  0
   -3.6599   -3.3819   -3.8666 H   0  0  0  0  0  0  0  0  0  0  0  0
   -3.7091   -4.0289   -1.4843 H   0  0  0  0  0  0  0  0  0  0  0  0
   -3.5177   -2.8630    3.0931 H   0  0  0  0  0  0  0  0  0  0  0  0
   -3.2732   -1.7052    7.6662 H   0  0  0  0  0  0  0  0  0  0  0  0
  1  2  4  0
  2  3  4  0
  3  4  4  0
  4  5  4  0
  5  6  4  0
  6  7  4  0
  7  8  4  0
  8  9  4  0
  9 10  4  0
 10 11  4  0
 11 12  4  0
 12 13  1  0
 13 14  4  0
 14 15  4  0
 15 16  4  0
 16 17  4  0
 17 18  4  0
 18 19  4  0
 19 20  4  0
 20 21  4  0
 21 22  4  0
 22 23  4  0
 23 24  4  0
 24 25  4  0
 25 26  1  0
 26 27  4  0
 27 28  4  0
 28 29  4  0
 29 30  4  0
 30 31  4  0
 31 32  4  0
 32 33  4  0
 33 34  4  0
 34 35  4  0
 35 36  4  0
 36 37  4  0
 37 38  4  0
 38 39  4  0
 39 40  4  0
 40 41  4  0
 41 42  4  0
 42 43  4  0
 43 44  4  0
 44 45  4  0
 45 46  4  0
 46 47  4  0
 25 48  4  0
 48 49  4  0
 49 50  4  0
 50 51  4  0
 51 52  4  0
 12 53  4  0
 53 54  4  0
 54 55  4  0
 55 56  4  0
 56 57  4  0
 57 58  4  0
 58 59  4  0
 59 60  4  0
 60 61  4  0
 61 62  4  0
 62  1  4  0
 61  4  4  0
 59  6  4  0
 57  8  4  0
 55 10  4  0
 52 13  4  0
 52 17  4  0
 50 19  4  0
 48 21  4  0
 47 26  4  0
 45 28  4  0
 43 30  4  0
 41 32  4  0
 39 34  4  0
  1 63  1  0
  2 64  1  0
  3 65  1  0
  7 66  1  0
 11 67  1  0
 14 68  1  0
 15 69  1  0
 16 70  1  0
 18 71  1  0
 20 72  1  0
 22 73  1  0
 23 74  1  0
 24 75  1  0
 27 76  1  0
 31 77  1  0
 35 78  1  0
 36 79  1  0
 37 80  1  0
 38 81  1  0
 42 82  1  0
 46 83  1  0
 47 84  1  0
 49 85  1  0
 51 86  1  0
 53 87  1  0
 54 88  1  0
 58 89  1  0
 62 90  1  0
M  END
