
     RDKit          3D

 94107  0  0  0  0  0  0  0  0999 V2000
    6.8722   -5.6668   -6.4143 C   0  0  0  0  0  0  0  0  0  0  0  0
    7.0514   -4.6048   -5.5309 C   0  0  0  0  0  0  0  0  0  0  0  0
    5.9777   -3.7515   -5.2200 C   0  0  0  0  0  0  0  0  0  0  0  0
    6.1215   -2.6757   -4.3377 C   0  0  0  0  0  0  0  0  0  0  0  0
    5.0285   -1.8496   -4.0542 C   0  0  0  0  0  0  0  0  0  0  0  0
    5.1304   -0.7571   -3.1729 C   0  0  0  0  0  0  0  0  0  0  0  0
    4.0463    0.0592   -2.8942 C   0  0  0  0  0  0  0  0  0  0  0  0
    4.1973    1.0890   -2.0448 N   0  0  0  0  0  0  0  0  0  0  0  0
    3.1436    1.8800   -1.7762 C   0  0  0  0  0  0  0  0  0  0  0  0
    3.2974    2.9425   -0.8948 C   0  0  0  0  0  0  0  0  0  0  0  0
    2.2394    3.8084   -0.5689 C   0  0  0  0  0  0  0  0  0  0  0  0
    2.4401    4.9197    0.3786 C   0  0  0  0  0  0  0  0  0  0  0  0
    3.1939    6.0293   -0.0464 C   0  0  0  0  0  0  0  0  0  0  0  0
    3.3994    7.1203    0.7916 C   0  0  0  0  0  0  0  0  0  0  0  0
    2.8511    7.1223    2.0707 C   0  0  0  0  0  0  0  0  0  0  0  0
    2.0968    6.0341    2.5340 C   0  0  0  0  0  0  0  0  0  0  0  0
    1.5462    6.0554    3.8278 C   0  0  0  0  0  0  0  0  0  0  0  0
    0.7842    4.9846    4.3231 C   0  0  0  0  0  0  0  0  0  0  0  0
    0.2193    5.0056    5.6082 C   0  0  0  0  0  0  0  0  0  0  0  0
   -0.5545    3.9364    6.0933 C   0  0  0  0  0  0  0  0  0  0  0  0
   -1.1055    3.9961    7.3814 C   0  0  0  0  0  0  0  0  0  0  0  0
   -1.8786    2.9513    7.8776 C   0  0  0  0  0  0  0  0  0  0  0  0
   -2.1164    1.8317    7.0877 C   0  0  0  0  0  0  0  0  0  0  0  0
   -1.5839    1.7328    5.7888 C   0  0  0  0  0  0  0  0  0  0  0  0
   -1.8944    0.5266    4.9988 C   0  0  0  0  0  0  0  0  0  0  0  0
   -1.3467   -0.7147    5.3403 C   0  0  0  0  0  0  0  0  0  0  0  0
   -1.6417   -1.8479    4.5829 C   0  0  0  0  0  0  0  0  0  0  0  0
   -2.4882   -1.7521    3.4666 C   0  0  0  0  0  0  0  0  0  0  0  0
   -2.7996   -2.8652    2.6786 C   0  0  0  0  0  0  0  0  0  0  0  0
   -3.6411   -2.7268    1.5691 C   0  0  0  0  0  0  0  0  0  0  0  0
   -3.9795   -3.8196    0.7491 C   0  0  0  0  0  0  0  0  0  0  0  0
   -4.8113   -3.6778   -0.3501 C   0  0  0  0  0  0  0  0  0  0  0  0
   -5.1023   -4.7538   -1.1001 N   0  0  0  0  0  0  0  0  0  0  0  0
   -5.9093   -4.6116   -2.1669 C   0  0  0  0  0  0  0  0  0  0  0  0
   -6.2131   -5.7204   -2.9457 C   0  0  0  0  0  0  0  0  0  0  0  0
   -7.0461   -5.6282   -4.0648 C   0  0  0  0  0  0  0  0  0  0  0  0
   -7.5930   -4.4011   -4.4210 C   0  0  0  0  0  0  0  0  0  0  0  0
   -7.3049   -3.2723   -3.6574 C   0  0  0  0  0  0  0  0  0  0  0  0
   -6.4662   -3.3714   -2.5328 C   0  0  0  0  0  0  0  0  0  0  0  0
   -6.1555   -2.2591   -1.7434 C   0  0  0  0  0  0  0  0  0  0  0  0
   -5.3168   -2.3988   -0.6320 C   0  0  0  0  0  0  0  0  0  0  0  0
   -4.9789   -1.3061    0.1883 C   0  0  0  0  0  0  0  0  0  0  0  0
   -4.1476   -1.4482    1.2876 C   0  0  0  0  0  0  0  0  0  0  0  0
   -3.8568   -0.3727    2.0384 N   0  0  0  0  0  0  0  0  0  0  0  0
   -3.0510   -0.5146    3.1058 C   0  0  0  0  0  0  0  0  0  0  0  0
   -2.7517    0.5950    3.8854 C   0  0  0  0  0  0  0  0  0  0  0  0
   -0.7801    2.7982    5.2818 C   0  0  0  0  0  0  0  0  0  0  0  0
   -0.1817    2.7870    3.9996 C   0  0  0  0  0  0  0  0  0  0  0  0
    0.5815    3.8613    3.5112 C   0  0  0  0  0  0  0  0  0  0  0  0
    1.1391    3.8352    2.2220 C   0  0  0  0  0  0  0  0  0  0  0  0
    1.8892    4.9129    1.6948 C   0  0  0  0  0  0  0  0  0  0  0  0
    0.9917    3.5899   -1.1653 C   0  0  0  0  0  0  0  0  0  0  0  0
    0.8073    2.5254   -2.0462 C   0  0  0  0  0  0  0  0  0  0  0  0
    1.8782    1.6715   -2.3546 C   0  0  0  0  0  0  0  0  0  0  0  0
    1.7322    0.5949   -3.2357 C   0  0  0  0  0  0  0  0  0  0  0  0
    2.8242   -0.2325   -3.5202 C   0  0  0  0  0  0  0  0  0  0  0  0
    2.7222   -1.3253   -4.4015 C   0  0  0  0  0  0  0  0  0  0  0  0
    3.8066   -2.1416   -4.6808 C   0  0  0  0  0  0  0  0  0  0  0  0
    3.6557   -3.1714   -5.5301 N   0  0  0  0  0  0  0  0  0  0  0  0
    4.7111   -3.9611   -5.7978 C   0  0  0  0  0  0  0  0  0  0  0  0
    4.5604   -5.0270   -6.6748 C   0  0  0  0  0  0  0  0  0  0  0  0
    5.6240   -5.8788   -6.9879 C   0  0  0  0  0  0  0  0  0  0  0  0
    7.7032   -6.3252   -6.6533 H   0  0  0  0  0  0  0  0  0  0  0  0
    8.0309   -4.4453   -5.0859 H   0  0  0  0  0  0  0  0  0  0  0  0
    7.0844   -2.4811   -3.8711 H   0  0  0  0  0  0  0  0  0  0  0  0
    6.0784   -0.5330   -2.6883 H   0  0  0  0  0  0  0  0  0  0  0  0
    4.2743    3.0941   -0.4388 H   0  0  0  0  0  0  0  0  0  0  0  0
    3.6194    6.0464   -1.0484 H   0  0  0  0  0  0  0  0  0  0  0  0
    3.9821    7.9702    0.4463 H   0  0  0  0  0  0  0  0  0  0  0  0
    3.0195    7.9874    2.7090 H   0  0  0  0  0  0  0  0  0  0  0  0
    1.7087    6.9256    4.4616 H   0  0  0  0  0  0  0  0  0  0  0  0
    0.3812    5.8762    6.2417 H   0  0  0  0  0  0  0  0  0  0  0  0
   -0.9359    4.8656    8.0132 H   0  0  0  0  0  0  0  0  0  0  0  0
   -2.3010    3.0130    8.8770 H   0  0  0  0  0  0  0  0  0  0  0  0
   -2.7355    1.0293    7.4854 H   0  0  0  0  0  0  0  0  0  0  0  0
   -0.6782   -0.8020    6.1948 H   0  0  0  0  0  0  0  0  0  0  0  0
   -1.2026   -2.8019    4.8659 H   0  0  0  0  0  0  0  0  0  0  0  0
   -2.3859   -3.8399    2.9278 H   0  0  0  0  0  0  0  0  0  0  0  0
   -3.5862   -4.8100    0.9687 H   0  0  0  0  0  0  0  0  0  0  0  0
   -5.7889   -6.6840   -2.6732 H   0  0  0  0  0  0  0  0  0  0  0  0
   -7.2632   -6.5164   -4.6523 H   0  0  0  0  0  0  0  0  0  0  0  0
   -8.2413   -4.3224   -5.2898 H   0  0  0  0  0  0  0  0  0  0  0  0
   -7.7364   -2.3155   -3.9425 H   0  0  0  0  0  0  0  0  0  0  0  0
   -6.5666   -1.2839   -1.9940 H   0  0  0  0  0  0  0  0  0  0  0  0
   -5.3717   -0.3156   -0.0317 H   0  0  0  0  0  0  0  0  0  0  0  0
   -3.1949    1.5507    3.6090 H   0  0  0  0  0  0  0  0  0  0  0  0
   -0.3131    1.9202    3.3544 H   0  0  0  0  0  0  0  0  0  0  0  0
    0.9775    2.9469    1.6139 H   0  0  0  0  0  0  0  0  0  0  0  0
    0.1523    4.2441   -0.9350 H   0  0  0  0  0  0  0  0  0  0  0  0
   -0.1747    2.3669   -2.4865 H   0  0  0  0  0  0  0  0  0  0  0  0
    0.7683    0.4006   -3.7006 H   0  0  0  0  0  0  0  0  0  0  0  0
    1.7744   -1.5498   -4.8862 H   0  0  0  0  0  0  0  0  0  0  0  0
    3.5867   -5.1990   -7.1273 H   0  0  0  0  0  0  0  0  0  0  0  0
    5.4712   -6.7038   -7.6786 H   0  0  0  0  0  0  0  0  0  0  0  0
  1  2  4  0
  2  3  4  0
  3  4  4  0
  4  5  4  0
  5  6  4  0
  6  7  4  0
  7  8  4  0
  8  9  4  0
  9 10  4  0
 10 11  4  0
 11 12  1  0
 12 13  4  0
 13 14  4  0
 14 15  4  0
 15 16  4  0
 16 17  4  0
 17 18  4  0
 18 19  4  0
 19 20  4  0
 20 21  4  0
 21 22  4  0
 22 23  4  0
 23 24  4  0
 24 25  1  0
 25 26  4  0
 26 27  4  0
 27 28  4  0
 28 29  4  0
 29 30  4  0
 30 31  4  0
 31 32  4  0
 32 33  4  0
 33 34  4  0
 34 35  4  0
 35 36  4  0
 36 37  4  0
 37 38  4  0
 38 39  4  0
 39 40  4  0
 40 41  4  0
 41 42  4  0
 42 43  4  0
 43 44  4  0
 44 45  4  0
 45 46  4  0
 24 47  4  0
 47 48  4  0
 48 49  4  0
 49 50  4  0
 50 51  4  0
 11 52  4  0
 52 53  4  0
 53 54  4  0
 54 55  4  0
 55 56  4  0
 56 57  4  0
 57 58  4  0
 58 59  4  0
 59 60  4  0
 60 61  4  0
 61 62  4  0
 62  1  4  0
 60  3  4  0
 58  5  4  0
 56  7  4  0
 54  9  4  0
 51 12  4  0
 51 16  4  0
 49 18  4  0
 47 20  4  0
 46 25  4  0
 45 28  4  0
 43 30  4  0
 41 32  4  0
 39 34  4  0
  1 63  1  0
  2 64  1  0
  4 65  1  0
  6 66  1  0
 10 67  1  0
 13 68  1  0
 14 69  1  0
 15 70  1  0
 17 71  1  0
 19 72  1  0
 21 73  1  0
 22 74  1  0
 23 75  1  0
 26 76  1  0
 27 77  1  0
 29 78  1  0
 31 79  1  0
 35 80  1  0
 36 81  1  0
 37 82  1  0
 38 83  1  0
 40 84  1  0
 42 85  1  0
 46 86  1  0
 48 87  1  0
 50 88  1  0
 52 89  1  0
 53 90  1  0
 55 91  1  0
 57 92  1  0
 61 93  1  0
 62 94  1  0
M  END
