
     RDKit          3D

 94107  0  0  0  0  0  0  0  0999 V2000
    4.5129    4.0331    7.9862 C   0  0  0  0  0  0  0  0  0  0  0  0
    4.8918    5.0019    7.0643 C   0  0  0  0  0  0  0  0  0  0  0  0
    4.9366    4.6868    5.7027 C   0  0  0  0  0  0  0  0  0  0  0  0
    4.6108    3.4210    5.2333 C   0  0  0  0  0  0  0  0  0  0  0  0
    4.6702    3.1694    3.9131 N   0  0  0  0  0  0  0  0  0  0  0  0
    4.3538    1.9432    3.4640 C   0  0  0  0  0  0  0  0  0  0  0  0
    4.4131    1.6799    2.1049 C   0  0  0  0  0  0  0  0  0  0  0  0
    4.0925    0.4139    1.5793 C   0  0  0  0  0  0  0  0  0  0  0  0
    4.1513    0.1444    0.2074 C   0  0  0  0  0  0  0  0  0  0  0  0
    3.8250   -1.1282   -0.2737 C   0  0  0  0  0  0  0  0  0  0  0  0
    3.8739   -1.4386   -1.6461 C   0  0  0  0  0  0  0  0  0  0  0  0
    3.5412   -2.7189   -2.1082 C   0  0  0  0  0  0  0  0  0  0  0  0
    3.6081   -3.0434   -3.5421 C   0  0  0  0  0  0  0  0  0  0  0  0
    4.8671   -3.3486   -4.0915 C   0  0  0  0  0  0  0  0  0  0  0  0
    5.0035   -3.6652   -5.4384 C   0  0  0  0  0  0  0  0  0  0  0  0
    3.8810   -3.6819   -6.2606 C   0  0  0  0  0  0  0  0  0  0  0  0
    2.6087   -3.3823   -5.7512 C   0  0  0  0  0  0  0  0  0  0  0  0
    1.4874   -3.4034   -6.5988 C   0  0  0  0  0  0  0  0  0  0  0  0
    0.1990   -3.1073   -6.1262 C   0  0  0  0  0  0  0  0  0  0  0  0
   -0.9231   -3.1301   -6.9708 C   0  0  0  0  0  0  0  0  0  0  0  0
   -2.2122   -2.8327   -6.4950 C   0  0  0  0  0  0  0  0  0  0  0  0
   -3.3124   -2.8698   -7.3653 C   0  0  0  0  0  0  0  0  0  0  0  0
   -4.5959   -2.5802   -6.9103 C   0  0  0  0  0  0  0  0  0  0  0  0
   -4.7965   -2.2464   -5.5752 C   0  0  0  0  0  0  0  0  0  0  0  0
   -3.7185   -2.1963   -4.6727 C   0  0  0  0  0  0  0  0  0  0  0  0
   -3.9944   -1.8292   -3.2749 C   0  0  0  0  0  0  0  0  0  0  0  0
   -3.7268   -0.5360   -2.8051 C   0  0  0  0  0  0  0  0  0  0  0  0
   -3.9584   -0.1924   -1.4606 C   0  0  0  0  0  0  0  0  0  0  0  0
   -3.6824    1.0873   -0.9677 C   0  0  0  0  0  0  0  0  0  0  0  0
   -3.9165    1.3866    0.3788 C   0  0  0  0  0  0  0  0  0  0  0  0
   -3.6484    2.6593    0.9164 C   0  0  0  0  0  0  0  0  0  0  0  0
   -3.8785    2.9511    2.2511 C   0  0  0  0  0  0  0  0  0  0  0  0
   -3.6030    4.1818    2.7135 N   0  0  0  0  0  0  0  0  0  0  0  0
   -3.8277    4.4613    4.0099 C   0  0  0  0  0  0  0  0  0  0  0  0
   -3.5445    5.7321    4.4928 C   0  0  0  0  0  0  0  0  0  0  0  0
   -3.7589    6.0764    5.8309 C   0  0  0  0  0  0  0  0  0  0  0  0
   -4.2689    5.1326    6.7147 C   0  0  0  0  0  0  0  0  0  0  0  0
   -4.5619    3.8498    6.2570 C   0  0  0  0  0  0  0  0  0  0  0  0
   -4.3439    3.5097    4.9097 C   0  0  0  0  0  0  0  0  0  0  0  0
   -4.6263    2.2318    4.4155 C   0  0  0  0  0  0  0  0  0  0  0  0
   -4.3951    1.9330    3.0681 C   0  0  0  0  0  0  0  0  0  0  0  0
   -4.6640    0.6604    2.5302 C   0  0  0  0  0  0  0  0  0  0  0  0
   -4.4322    0.3681    1.1957 C   0  0  0  0  0  0  0  0  0  0  0  0
   -4.7030   -0.8639    0.7327 N   0  0  0  0  0  0  0  0  0  0  0  0
   -4.4744   -1.1434   -0.5620 C   0  0  0  0  0  0  0  0  0  0  0  0
   -4.7497   -2.4153   -1.0420 C   0  0  0  0  0  0  0  0  0  0  0  0
   -4.5169   -2.7650   -2.3769 C   0  0  0  0  0  0  0  0  0  0  0  0
   -2.4023   -2.4970   -5.1333 C   0  0  0  0  0  0  0  0  0  0  0  0
   -1.2598   -2.4850   -4.2970 C   0  0  0  0  0  0  0  0  0  0  0  0
    0.0289   -2.7813   -4.7736 C   0  0  0  0  0  0  0  0  0  0  0  0
    1.1500   -2.7588   -3.9245 C   0  0  0  0  0  0  0  0  0  0  0  0
    2.4555   -3.0576   -4.3817 C   0  0  0  0  0  0  0  0  0  0  0  0
    3.1610   -3.6825   -1.1686 C   0  0  0  0  0  0  0  0  0  0  0  0
    3.1166   -3.3684    0.1948 C   0  0  0  0  0  0  0  0  0  0  0  0
    3.4423   -2.1042    0.6642 C   0  0  0  0  0  0  0  0  0  0  0  0
    3.3832   -1.8537    1.9842 N   0  0  0  0  0  0  0  0  0  0  0  0
    3.6993   -0.6277    2.4342 C   0  0  0  0  0  0  0  0  0  0  0  0
    3.6399   -0.3644    3.7936 C   0  0  0  0  0  0  0  0  0  0  0  0
    3.9602    0.9017    4.3192 C   0  0  0  0  0  0  0  0  0  0  0  0
    3.9012    1.1714    5.6912 C   0  0  0  0  0  0  0  0  0  0  0  0
    4.2278    2.4441    6.1718 C   0  0  0  0  0  0  0  0  0  0  0  0
    4.1808    2.7549    7.5429 C   0  0  0  0  0  0  0  0  0  0  0  0
    4.4760    4.2713    9.0461 H   0  0  0  0  0  0  0  0  0  0  0  0
    5.1533    6.0029    7.3976 H   0  0  0  0  0  0  0  0  0  0  0  0
    5.2340    5.4500    4.9874 H   0  0  0  0  0  0  0  0  0  0  0  0
    4.7176    2.4856    1.4400 H   0  0  0  0  0  0  0  0  0  0  0  0
    4.4518    0.9264   -0.4866 H   0  0  0  0  0  0  0  0  0  0  0  0
    4.1710   -0.6758   -2.3644 H   0  0  0  0  0  0  0  0  0  0  0  0
    5.7526   -3.3430   -3.4580 H   0  0  0  0  0  0  0  0  0  0  0  0
    5.9827   -3.9005   -5.8469 H   0  0  0  0  0  0  0  0  0  0  0  0
    4.0089   -3.9331   -7.3118 H   0  0  0  0  0  0  0  0  0  0  0  0
    1.6192   -3.6557   -7.6496 H   0  0  0  0  0  0  0  0  0  0  0  0
   -0.7896   -3.3862   -8.0210 H   0  0  0  0  0  0  0  0  0  0  0  0
   -3.1767   -3.1287   -8.4137 H   0  0  0  0  0  0  0  0  0  0  0  0
   -5.4382   -2.6134   -7.5964 H   0  0  0  0  0  0  0  0  0  0  0  0
   -5.8043   -2.0174   -5.2328 H   0  0  0  0  0  0  0  0  0  0  0  0
   -3.3217    0.2047   -3.4934 H   0  0  0  0  0  0  0  0  0  0  0  0
   -3.2824    1.8503   -1.6321 H   0  0  0  0  0  0  0  0  0  0  0  0
   -3.2480    3.4472    0.2818 H   0  0  0  0  0  0  0  0  0  0  0  0
   -3.1452    6.4751    3.8065 H   0  0  0  0  0  0  0  0  0  0  0  0
   -3.5261    7.0805    6.1754 H   0  0  0  0  0  0  0  0  0  0  0  0
   -4.4380    5.3933    7.7562 H   0  0  0  0  0  0  0  0  0  0  0  0
   -4.9605    3.1167    6.9545 H   0  0  0  0  0  0  0  0  0  0  0  0
   -5.0260    1.4691    5.0799 H   0  0  0  0  0  0  0  0  0  0  0  0
   -5.0637   -0.1274    3.1653 H   0  0  0  0  0  0  0  0  0  0  0  0
   -5.1501   -3.1591   -0.3571 H   0  0  0  0  0  0  0  0  0  0  0  0
   -4.7373   -3.7784   -2.7071 H   0  0  0  0  0  0  0  0  0  0  0  0
   -1.3721   -2.2428   -3.2410 H   0  0  0  0  0  0  0  0  0  0  0  0
    0.9964   -2.5006   -2.8778 H   0  0  0  0  0  0  0  0  0  0  0  0
    2.8965   -4.6877   -1.4908 H   0  0  0  0  0  0  0  0  0  0  0  0
    2.8205   -4.1337    0.9085 H   0  0  0  0  0  0  0  0  0  0  0  0
    3.3356   -1.1703    4.4582 H   0  0  0  0  0  0  0  0  0  0  0  0
    3.6007    0.3904    6.3860 H   0  0  0  0  0  0  0  0  0  0  0  0
    3.8853    2.0022    8.2703 H   0  0  0  0  0  0  0  0  0  0  0  0
  1  2  4  0
  2  3  4  0
  3  4  4  0
  4  5  4  0
  5  6  4  0
  6  7  4  0
  7  8  4  0
  8  9  4  0
  9 10  4  0
 10 11  4  0
 11 12  4  0
 12 13  1  0
 13 14  4  0
 14 15  4  0
 15 16  4  0
 16 17  4  0
 17 18  4  0
 18 19  4  0
 19 20  4  0
 20 21  4  0
 21 22  4  0
 22 23  4  0
 23 24  4  0
 24 25  4  0
 25 26  1  0
 26 27  4  0
 27 28  4  0
 28 29  4  0
 29 30  4  0
 30 31  4  0
 31 32  4  0
 32 33  4  0
 33 34  4  0
 34 35  4  0
 35 36  4  0
 36 37  4  0
 37 38  4  0
 38 39  4  0
 39 40  4  0
 40 41  4  0
 41 42  4  0
 42 43  4  0
 43 44  4  0
 44 45  4  0
 45 46  4  0
 46 47  4  0
 25 48  4  0
 48 49  4  0
 49 50  4  0
 50 51  4  0
 51 52  4  0
 12 53  4  0
 53 54  4  0
 54 55  4  0
 55 56  4  0
 56 57  4  0
 57 58  4  0
 58 59  4  0
 59 60  4  0
 60 61  4  0
 61 62  4  0
 62  1  4  0
 61  4  4  0
 59  6  4  0
 57  8  4  0
 55 10  4  0
 52 13  4  0
 52 17  4  0
 50 19  4  0
 48 21  4  0
 47 26  4  0
 45 28  4  0
 43 30  4  0
 41 32  4  0
 39 34  4  0
  1 63  1  0
  2 64  1  0
  3 65  1  0
  7 66  1  0
  9 67  1  0
 11 68  1  0
 14 69  1  0
 15 70  1  0
 16 71  1  0
 18 72  1  0
 20 73  1  0
 22 74  1  0
 23 75  1  0
 24 76  1  0
 27 77  1  0
 29 78  1  0
 31 79  1  0
 35 80  1  0
 36 81  1  0
 37 82  1  0
 38 83  1  0
 40 84  1  0
 42 85  1  0
 46 86  1  0
 47 87  1  0
 49 88  1  0
 51 89  1  0
 53 90  1  0
 54 91  1  0
 58 92  1  0
 60 93  1  0
 62 94  1  0
M  END
