
     RDKit          3D

 94107  0  0  0  0  0  0  0  0999 V2000
   -6.2367   -4.7004   -7.1830 C   0  0  0  0  0  0  0  0  0  0  0  0
   -5.7439   -3.4805   -6.7248 C   0  0  0  0  0  0  0  0  0  0  0  0
   -5.6099   -3.2420   -5.3450 C   0  0  0  0  0  0  0  0  0  0  0  0
   -5.1190   -2.0294   -4.8491 C   0  0  0  0  0  0  0  0  0  0  0  0
   -5.0008   -1.8312   -3.4689 C   0  0  0  0  0  0  0  0  0  0  0  0
   -4.5122   -0.6269   -2.9282 C   0  0  0  0  0  0  0  0  0  0  0  0
   -4.3965   -0.4343   -1.5609 C   0  0  0  0  0  0  0  0  0  0  0  0
   -3.9244    0.7346   -1.0961 N   0  0  0  0  0  0  0  0  0  0  0  0
   -3.8140    0.9163    0.2317 C   0  0  0  0  0  0  0  0  0  0  0  0
   -3.3276    2.1216    0.7170 C   0  0  0  0  0  0  0  0  0  0  0  0
   -3.1938    2.3637    2.0892 C   0  0  0  0  0  0  0  0  0  0  0  0
   -3.5504    1.3839    3.0208 C   0  0  0  0  0  0  0  0  0  0  0  0
   -3.4171    1.6266    4.4656 C   0  0  0  0  0  0  0  0  0  0  0  0
   -4.5545    2.0567    5.1735 C   0  0  0  0  0  0  0  0  0  0  0  0
   -4.4968    2.2961    6.5420 C   0  0  0  0  0  0  0  0  0  0  0  0
   -3.2993    2.1079    7.2260 C   0  0  0  0  0  0  0  0  0  0  0  0
   -2.1435    1.6796    6.5553 C   0  0  0  0  0  0  0  0  0  0  0  0
   -0.9435    1.4921    7.2635 C   0  0  0  0  0  0  0  0  0  0  0  0
    0.2318    1.0638    6.6246 C   0  0  0  0  0  0  0  0  0  0  0  0
    1.4319    0.8737    7.3294 C   0  0  0  0  0  0  0  0  0  0  0  0
    2.6065    0.4451    6.6858 C   0  0  0  0  0  0  0  0  0  0  0  0
    3.7884    0.2638    7.4200 C   0  0  0  0  0  0  0  0  0  0  0  0
    4.9604   -0.1589    6.7989 C   0  0  0  0  0  0  0  0  0  0  0  0
    4.9662   -0.4061    5.4303 C   0  0  0  0  0  0  0  0  0  0  0  0
    3.8015   -0.2359    4.6606 C   0  0  0  0  0  0  0  0  0  0  0  0
    3.8745   -0.5096    3.2174 C   0  0  0  0  0  0  0  0  0  0  0  0
    3.5546   -1.7717    2.7081 C   0  0  0  0  0  0  0  0  0  0  0  0
    3.6082   -2.0159    1.3308 C   0  0  0  0  0  0  0  0  0  0  0  0
    3.9772   -1.0294    0.4277 C   0  0  0  0  0  0  0  0  0  0  0  0
    4.0038   -1.3135   -0.8862 N   0  0  0  0  0  0  0  0  0  0  0  0
    4.3598   -0.3547   -1.7577 C   0  0  0  0  0  0  0  0  0  0  0  0
    4.3862   -0.6415   -3.1131 C   0  0  0  0  0  0  0  0  0  0  0  0
    4.7488    0.3262   -4.0689 C   0  0  0  0  0  0  0  0  0  0  0  0
    4.7751    0.0414   -5.4387 C   0  0  0  0  0  0  0  0  0  0  0  0
    5.1403    1.0334   -6.3551 C   0  0  0  0  0  0  0  0  0  0  0  0
    5.1787    0.7876   -7.7395 C   0  0  0  0  0  0  0  0  0  0  0  0
    5.5470    1.7993   -8.6235 C   0  0  0  0  0  0  0  0  0  0  0  0
    5.8770    3.0556   -8.1287 C   0  0  0  0  0  0  0  0  0  0  0  0
    5.8369    3.2938   -6.7514 C   0  0  0  0  0  0  0  0  0  0  0  0
    5.4734    2.3038   -5.8482 C   0  0  0  0  0  0  0  0  0  0  0  0
    5.4507    2.5850   -4.5329 N   0  0  0  0  0  0  0  0  0  0  0  0
    5.0983    1.6239   -3.6634 C   0  0  0  0  0  0  0  0  0  0  0  0
    5.0737    1.9102   -2.3082 C   0  0  0  0  0  0  0  0  0  0  0  0
    4.7101    0.9430   -1.3529 C   0  0  0  0  0  0  0  0  0  0  0  0
    4.6810    1.2297    0.0162 C   0  0  0  0  0  0  0  0  0  0  0  0
    4.3089    0.2408    0.9329 C   0  0  0  0  0  0  0  0  0  0  0  0
    4.2582    0.4926    2.3166 C   0  0  0  0  0  0  0  0  0  0  0  0
    2.5985    0.1959    5.2927 C   0  0  0  0  0  0  0  0  0  0  0  0
    1.3806    0.3935    4.5996 C   0  0  0  0  0  0  0  0  0  0  0  0
    0.2058    0.8186    5.2444 C   0  0  0  0  0  0  0  0  0  0  0  0
   -0.9945    1.0027    4.5359 C   0  0  0  0  0  0  0  0  0  0  0  0
   -2.1880    1.4341    5.1621 C   0  0  0  0  0  0  0  0  0  0  0  0
   -4.0439    0.1627    2.5433 C   0  0  0  0  0  0  0  0  0  0  0  0
   -4.1759   -0.0744    1.1624 C   0  0  0  0  0  0  0  0  0  0  0  0
   -4.6660   -1.2869    0.6660 C   0  0  0  0  0  0  0  0  0  0  0  0
   -4.7838   -1.4846   -0.7139 C   0  0  0  0  0  0  0  0  0  0  0  0
   -5.2725   -2.6888   -1.2543 C   0  0  0  0  0  0  0  0  0  0  0  0
   -5.3884   -2.8812   -2.6214 C   0  0  0  0  0  0  0  0  0  0  0  0
   -5.8615   -4.0500   -3.0850 N   0  0  0  0  0  0  0  0  0  0  0  0
   -5.9721   -4.2329   -4.4130 C   0  0  0  0  0  0  0  0  0  0  0  0
   -6.4603   -5.4393   -4.8970 C   0  0  0  0  0  0  0  0  0  0  0  0
   -6.5959   -5.6823   -6.2672 C   0  0  0  0  0  0  0  0  0  0  0  0
   -6.3395   -4.8831   -8.2496 H   0  0  0  0  0  0  0  0  0  0  0  0
   -5.4648   -2.7170   -7.4472 H   0  0  0  0  0  0  0  0  0  0  0  0
   -4.8287   -1.2392   -5.5377 H   0  0  0  0  0  0  0  0  0  0  0  0
   -4.2134    0.1855   -3.5874 H   0  0  0  0  0  0  0  0  0  0  0  0
   -3.0463    2.8975    0.0087 H   0  0  0  0  0  0  0  0  0  0  0  0
   -2.8061    3.3238    2.4244 H   0  0  0  0  0  0  0  0  0  0  0  0
   -5.4967    2.2081    4.6493 H   0  0  0  0  0  0  0  0  0  0  0  0
   -5.3837    2.6285    7.0749 H   0  0  0  0  0  0  0  0  0  0  0  0
   -3.2747    2.3001    8.2969 H   0  0  0  0  0  0  0  0  0  0  0  0
   -0.9231    1.6833    8.3353 H   0  0  0  0  0  0  0  0  0  0  0  0
    1.4513    1.0629    8.4018 H   0  0  0  0  0  0  0  0  0  0  0  0
    3.8046    0.4522    8.4916 H   0  0  0  0  0  0  0  0  0  0  0  0
    5.8678   -0.2955    7.3813 H   0  0  0  0  0  0  0  0  0  0  0  0
    5.8887   -0.7368    4.9559 H   0  0  0  0  0  0  0  0  0  0  0  0
    3.2510   -2.5731    3.3788 H   0  0  0  0  0  0  0  0  0  0  0  0
    3.3514   -3.0031    0.9537 H   0  0  0  0  0  0  0  0  0  0  0  0
    4.1159   -1.6467   -3.4298 H   0  0  0  0  0  0  0  0  0  0  0  0
    4.5106   -0.9527   -5.7918 H   0  0  0  0  0  0  0  0  0  0  0  0
    4.9215   -0.1929   -8.1337 H   0  0  0  0  0  0  0  0  0  0  0  0
    5.5760    1.6076   -9.6930 H   0  0  0  0  0  0  0  0  0  0  0  0
    6.1659    3.8536   -8.8075 H   0  0  0  0  0  0  0  0  0  0  0  0
    6.0962    4.2792   -6.3716 H   0  0  0  0  0  0  0  0  0  0  0  0
    5.3442    2.9156   -1.9923 H   0  0  0  0  0  0  0  0  0  0  0  0
    4.9463    2.2244    0.3679 H   0  0  0  0  0  0  0  0  0  0  0  0
    4.5106    1.4807    2.6987 H   0  0  0  0  0  0  0  0  0  0  0  0
    1.3406    0.2116    3.5263 H   0  0  0  0  0  0  0  0  0  0  0  0
   -0.9943    0.8029    3.4654 H   0  0  0  0  0  0  0  0  0  0  0  0
   -4.3250   -0.6112    3.2561 H   0  0  0  0  0  0  0  0  0  0  0  0
   -4.9563   -2.0778    1.3542 H   0  0  0  0  0  0  0  0  0  0  0  0
   -5.5720   -3.5011   -0.5955 H   0  0  0  0  0  0  0  0  0  0  0  0
   -6.7433   -6.2123   -4.1864 H   0  0  0  0  0  0  0  0  0  0  0  0
   -6.9815   -6.6383   -6.6117 H   0  0  0  0  0  0  0  0  0  0  0  0
  1  2  4  0
  2  3  4  0
  3  4  4  0
  4  5  4  0
  5  6  4  0
  6  7  4  0
  7  8  4  0
  8  9  4  0
  9 10  4  0
 10 11  4  0
 11 12  4  0
 12 13  1  0
 13 14  4  0
 14 15  4  0
 15 16  4  0
 16 17  4  0
 17 18  4  0
 18 19  4  0
 19 20  4  0
 20 21  4  0
 21 22  4  0
 22 23  4  0
 23 24  4  0
 24 25  4  0
 25 26  1  0
 26 27  4  0
 27 28  4  0
 28 29  4  0
 29 30  4  0
 30 31  4  0
 31 32  4  0
 32 33  4  0
 33 34  4  0
 34 35  4  0
 35 36  4  0
 36 37  4  0
 37 38  4  0
 38 39  4  0
 39 40  4  0
 40 41  4  0
 41 42  4  0
 42 43  4  0
 43 44  4  0
 44 45  4  0
 45 46  4  0
 46 47  4  0
 25 48  4  0
 48 49  4  0
 49 50  4  0
 50 51  4  0
 51 52  4  0
 12 53  4  0
 53 54  4  0
 54 55  4  0
 55 56  4  0
 56 57  4  0
 57 58  4  0
 58 59  4  0
 59 60  4  0
 60 61  4  0
 61 62  4  0
 62  1  4  0
 60  3  4  0
 58  5  4  0
 56  7  4  0
 54  9  4  0
 52 13  4  0
 52 17  4  0
 50 19  4  0
 48 21  4  0
 47 26  4  0
 46 29  4  0
 44 31  4  0
 42 33  4  0
 40 35  4  0
  1 63  1  0
  2 64  1  0
  4 65  1  0
  6 66  1  0
 10 67  1  0
 11 68  1  0
 14 69  1  0
 15 70  1  0
 16 71  1  0
 18 72  1  0
 20 73  1  0
 22 74  1  0
 23 75  1  0
 24 76  1  0
 27 77  1  0
 28 78  1  0
 32 79  1  0
 34 80  1  0
 36 81  1  0
 37 82  1  0
 38 83  1  0
 39 84  1  0
 43 85  1  0
 45 86  1  0
 47 87  1  0
 49 88  1  0
 51 89  1  0
 53 90  1  0
 55 91  1  0
 57 92  1  0
 61 93  1  0
 62 94  1  0
M  END
