
     RDKit          3D

 94107  0  0  0  0  0  0  0  0999 V2000
    3.3665    6.5982    1.8903 C   0  0  0  0  0  0  0  0  0  0  0  0
    3.2627    5.8451    3.0485 C   0  0  0  0  0  0  0  0  0  0  0  0
    3.2947    4.4538    2.9653 C   0  0  0  0  0  0  0  0  0  0  0  0
    3.4332    3.7856    1.7199 C   0  0  0  0  0  0  0  0  0  0  0  0
    3.5263    4.5668    0.5539 C   0  0  0  0  0  0  0  0  0  0  0  0
    3.4956    5.9517    0.6602 C   0  0  0  0  0  0  0  0  0  0  0  0
    3.6403    4.0370   -0.6703 N   0  0  0  0  0  0  0  0  0  0  0  0
    3.6600    2.7074   -0.8187 C   0  0  0  0  0  0  0  0  0  0  0  0
    3.7486    2.2058   -2.1070 C   0  0  0  0  0  0  0  0  0  0  0  0
    3.7616    0.8261   -2.3699 C   0  0  0  0  0  0  0  0  0  0  0  0
    3.8402    0.3182   -3.6720 C   0  0  0  0  0  0  0  0  0  0  0  0
    3.8447   -1.0639   -3.8870 C   0  0  0  0  0  0  0  0  0  0  0  0
    3.9221   -1.6158   -5.1785 C   0  0  0  0  0  0  0  0  0  0  0  0
    3.9235   -2.9980   -5.3539 C   0  0  0  0  0  0  0  0  0  0  0  0
    3.8472   -3.8303   -4.2431 C   0  0  0  0  0  0  0  0  0  0  0  0
    3.7705   -3.2751   -2.9620 C   0  0  0  0  0  0  0  0  0  0  0  0
    3.7680   -1.9014   -2.7588 C   0  0  0  0  0  0  0  0  0  0  0  0
    3.6939   -1.4178   -1.5061 N   0  0  0  0  0  0  0  0  0  0  0  0
    3.6919   -0.0882   -1.3123 C   0  0  0  0  0  0  0  0  0  0  0  0
    3.6174    0.4184   -0.0230 C   0  0  0  0  0  0  0  0  0  0  0  0
    3.5888    1.8105    0.2589 C   0  0  0  0  0  0  0  0  0  0  0  0
    3.4790    2.3681    1.5648 C   0  0  0  0  0  0  0  0  0  0  0  0
    3.4163    1.4920    2.7644 C   0  0  0  0  0  0  0  0  0  0  0  0
    4.5969    1.3030    3.5083 C   0  0  0  0  0  0  0  0  0  0  0  0
    4.5934    0.5518    4.6782 C   0  0  0  0  0  0  0  0  0  0  0  0
    3.4074   -0.0211    5.1277 C   0  0  0  0  0  0  0  0  0  0  0  0
    2.2138    0.1291    4.4061 C   0  0  0  0  0  0  0  0  0  0  0  0
    1.0257   -0.4594    4.8753 C   0  0  0  0  0  0  0  0  0  0  0  0
   -0.1783   -0.3614    4.1599 C   0  0  0  0  0  0  0  0  0  0  0  0
   -1.3701   -0.9440    4.6230 C   0  0  0  0  0  0  0  0  0  0  0  0
   -2.5628   -0.8726    3.8817 C   0  0  0  0  0  0  0  0  0  0  0  0
   -3.7403   -1.4546    4.3750 C   0  0  0  0  0  0  0  0  0  0  0  0
   -4.9245   -1.4066    3.6442 C   0  0  0  0  0  0  0  0  0  0  0  0
   -4.9441   -0.7893    2.3984 C   0  0  0  0  0  0  0  0  0  0  0  0
   -3.7812   -0.2028    1.8666 C   0  0  0  0  0  0  0  0  0  0  0  0
   -3.8425    0.3847    0.5044 C   0  0  0  0  0  0  0  0  0  0  0  0
   -3.6628   -0.4497   -0.6378 C   0  0  0  0  0  0  0  0  0  0  0  0
   -3.4523   -1.8548   -0.5849 C   0  0  0  0  0  0  0  0  0  0  0  0
   -3.2888   -2.6381   -1.7177 C   0  0  0  0  0  0  0  0  0  0  0  0
   -3.1016   -3.9628   -1.5894 N   0  0  0  0  0  0  0  0  0  0  0  0
   -2.9428   -4.7148   -2.6929 C   0  0  0  0  0  0  0  0  0  0  0  0
   -2.7468   -6.0833   -2.5637 C   0  0  0  0  0  0  0  0  0  0  0  0
   -2.5768   -6.9113   -3.6775 C   0  0  0  0  0  0  0  0  0  0  0  0
   -2.6026   -6.3654   -4.9557 C   0  0  0  0  0  0  0  0  0  0  0  0
   -2.7972   -4.9950   -5.1141 C   0  0  0  0  0  0  0  0  0  0  0  0
   -2.9669   -4.1671   -3.9893 C   0  0  0  0  0  0  0  0  0  0  0  0
   -3.1630   -2.7869   -4.1083 C   0  0  0  0  0  0  0  0  0  0  0  0
   -3.3271   -1.9990   -2.9624 C   0  0  0  0  0  0  0  0  0  0  0  0
   -3.5241   -0.6091   -3.0317 C   0  0  0  0  0  0  0  0  0  0  0  0
   -3.6919    0.1685   -1.8964 C   0  0  0  0  0  0  0  0  0  0  0  0
   -3.8728    1.4839   -2.0608 N   0  0  0  0  0  0  0  0  0  0  0  0
   -4.0540    2.2698   -0.9906 C   0  0  0  0  0  0  0  0  0  0  0  0
   -4.2470    3.6283   -1.2067 C   0  0  0  0  0  0  0  0  0  0  0  0
   -4.4440    4.5260   -0.1558 C   0  0  0  0  0  0  0  0  0  0  0  0
   -4.4487    4.0594    1.1491 C   0  0  0  0  0  0  0  0  0  0  0  0
   -4.2564    2.7001    1.3903 C   0  0  0  0  0  0  0  0  0  0  0  0
   -4.0552    1.7807    0.3282 C   0  0  0  0  0  0  0  0  0  0  0  0
   -2.5744   -0.2210    2.6264 C   0  0  0  0  0  0  0  0  0  0  0  0
   -1.3716    0.3807    2.1892 C   0  0  0  0  0  0  0  0  0  0  0  0
   -0.1882    0.3326    2.9427 C   0  0  0  0  0  0  0  0  0  0  0  0
    0.9870    0.9590    2.4948 C   0  0  0  0  0  0  0  0  0  0  0  0
    2.2072    0.8754    3.2033 C   0  0  0  0  0  0  0  0  0  0  0  0
    3.3422    7.6833    1.9351 H   0  0  0  0  0  0  0  0  0  0  0  0
    3.1548    6.3322    4.0139 H   0  0  0  0  0  0  0  0  0  0  0  0
    3.2028    3.8877    3.8904 H   0  0  0  0  0  0  0  0  0  0  0  0
    3.5714    6.5478   -0.2468 H   0  0  0  0  0  0  0  0  0  0  0  0
    3.7975    2.9153   -2.9308 H   0  0  0  0  0  0  0  0  0  0  0  0
    3.8965    0.9992   -4.5181 H   0  0  0  0  0  0  0  0  0  0  0  0
    3.9819   -0.9705   -6.0518 H   0  0  0  0  0  0  0  0  0  0  0  0
    3.9836   -3.4229   -6.3525 H   0  0  0  0  0  0  0  0  0  0  0  0
    3.8468   -4.9102   -4.3662 H   0  0  0  0  0  0  0  0  0  0  0  0
    3.7108   -3.9314   -2.0969 H   0  0  0  0  0  0  0  0  0  0  0  0
    3.5662   -0.3055    0.7887 H   0  0  0  0  0  0  0  0  0  0  0  0
    5.5280    1.7592    3.1759 H   0  0  0  0  0  0  0  0  0  0  0  0
    5.5121    0.4191    5.2434 H   0  0  0  0  0  0  0  0  0  0  0  0
    3.4244   -0.5991    6.0495 H   0  0  0  0  0  0  0  0  0  0  0  0
    1.0406   -1.0146    5.8119 H   0  0  0  0  0  0  0  0  0  0  0  0
   -1.3671   -1.4693    5.5768 H   0  0  0  0  0  0  0  0  0  0  0  0
   -3.7439   -1.9563    5.3407 H   0  0  0  0  0  0  0  0  0  0  0  0
   -5.8280   -1.8629    4.0403 H   0  0  0  0  0  0  0  0  0  0  0  0
   -5.8715   -0.7769    1.8279 H   0  0  0  0  0  0  0  0  0  0  0  0
   -3.4127   -2.3667    0.3753 H   0  0  0  0  0  0  0  0  0  0  0  0
   -2.7252   -6.5161   -1.5662 H   0  0  0  0  0  0  0  0  0  0  0  0
   -2.4251   -7.9788   -3.5405 H   0  0  0  0  0  0  0  0  0  0  0  0
   -2.4712   -7.0035   -5.8258 H   0  0  0  0  0  0  0  0  0  0  0  0
   -2.8160   -4.5749   -6.1170 H   0  0  0  0  0  0  0  0  0  0  0  0
   -3.1878   -2.3254   -5.0927 H   0  0  0  0  0  0  0  0  0  0  0  0
   -3.5463   -0.1118   -3.9995 H   0  0  0  0  0  0  0  0  0  0  0  0
   -4.2422    4.0001   -2.2291 H   0  0  0  0  0  0  0  0  0  0  0  0
   -4.5900    5.5827   -0.3629 H   0  0  0  0  0  0  0  0  0  0  0  0
   -4.5974    4.7458    1.9785 H   0  0  0  0  0  0  0  0  0  0  0  0
   -4.2596    2.3589    2.4238 H   0  0  0  0  0  0  0  0  0  0  0  0
   -1.3466    0.8988    1.2315 H   0  0  0  0  0  0  0  0  0  0  0  0
    0.9471    1.5096    1.5561 H   0  0  0  0  0  0  0  0  0  0  0  0
  1  2  4  0
  2  3  4  0
  3  4  4  0
  4  5  4  0
  5  6  4  0
  5  7  4  0
  7  8  4  0
  8  9  4  0
  9 10  4  0
 10 11  4  0
 11 12  4  0
 12 13  4  0
 13 14  4  0
 14 15  4  0
 15 16  4  0
 16 17  4  0
 17 18  4  0
 18 19  4  0
 19 20  4  0
 20 21  4  0
 21 22  4  0
 22 23  1  0
 23 24  4  0
 24 25  4  0
 25 26  4  0
 26 27  4  0
 27 28  4  0
 28 29  4  0
 29 30  4  0
 30 31  4  0
 31 32  4  0
 32 33  4  0
 33 34  4  0
 34 35  4  0
 35 36  1  0
 36 37  4  0
 37 38  4  0
 38 39  4  0
 39 40  4  0
 40 41  4  0
 41 42  4  0
 42 43  4  0
 43 44  4  0
 44 45  4  0
 45 46  4  0
 46 47  4  0
 47 48  4  0
 48 49  4  0
 49 50  4  0
 50 51  4  0
 51 52  4  0
 52 53  4  0
 53 54  4  0
 54 55  4  0
 55 56  4  0
 56 57  4  0
 35 58  4  0
 58 59  4  0
 59 60  4  0
 60 61  4  0
 61 62  4  0
  6  1  4  0
 21  8  4  0
 62 23  4  0
 22  4  4  0
 62 27  4  0
 19 10  4  0
 60 29  4  0
 17 12  4  0
 58 31  4  0
 57 36  4  0
 50 37  4  0
 57 52  4  0
 48 39  4  0
 46 41  4  0
  1 63  1  0
  2 64  1  0
  3 65  1  0
  6 66  1  0
  9 67  1  0
 11 68  1  0
 13 69  1  0
 14 70  1  0
 15 71  1  0
 16 72  1  0
 20 73  1  0
 24 74  1  0
 25 75  1  0
 26 76  1  0
 28 77  1  0
 30 78  1  0
 32 79  1  0
 33 80  1  0
 34 81  1  0
 38 82  1  0
 42 83  1  0
 43 84  1  0
 44 85  1  0
 45 86  1  0
 47 87  1  0
 49 88  1  0
 53 89  1  0
 54 90  1  0
 55 91  1  0
 56 92  1  0
 59 93  1  0
 61 94  1  0
M  END
