
     RDKit          3D

 94107  0  0  0  0  0  0  0  0999 V2000
    7.5536    6.3362   -4.6526 C   0  0  0  0  0  0  0  0  0  0  0  0
    6.5947    6.2678   -5.6566 C   0  0  0  0  0  0  0  0  0  0  0  0
    5.6867    5.2049   -5.6805 C   0  0  0  0  0  0  0  0  0  0  0  0
    5.7109    4.2011   -4.7217 C   0  0  0  0  0  0  0  0  0  0  0  0
    4.8147    3.2006   -4.7905 N   0  0  0  0  0  0  0  0  0  0  0  0
    4.8424    2.2320   -3.8609 C   0  0  0  0  0  0  0  0  0  0  0  0
    3.9207    1.2003   -3.9288 C   0  0  0  0  0  0  0  0  0  0  0  0
    3.9027    0.1605   -2.9813 C   0  0  0  0  0  0  0  0  0  0  0  0
    2.9723   -0.8821   -3.0453 C   0  0  0  0  0  0  0  0  0  0  0  0
    2.9864   -1.8941   -2.0803 C   0  0  0  0  0  0  0  0  0  0  0  0
    2.0677   -2.9555   -2.1092 C   0  0  0  0  0  0  0  0  0  0  0  0
    2.1105   -3.9462   -1.1299 C   0  0  0  0  0  0  0  0  0  0  0  0
    3.0641   -3.8868   -0.1081 C   0  0  0  0  0  0  0  0  0  0  0  0
    3.1193   -4.9281    0.9296 C   0  0  0  0  0  0  0  0  0  0  0  0
    4.0547   -5.9675    0.7732 C   0  0  0  0  0  0  0  0  0  0  0  0
    4.1516   -6.9903    1.7098 C   0  0  0  0  0  0  0  0  0  0  0  0
    3.3127   -6.9908    2.8196 C   0  0  0  0  0  0  0  0  0  0  0  0
    2.3697   -5.9701    3.0121 C   0  0  0  0  0  0  0  0  0  0  0  0
    1.5327   -5.9893    4.1403 C   0  0  0  0  0  0  0  0  0  0  0  0
    0.5804   -4.9841    4.3691 C   0  0  0  0  0  0  0  0  0  0  0  0
   -0.2577   -5.0079    5.4945 C   0  0  0  0  0  0  0  0  0  0  0  0
   -1.2115   -4.0029    5.7269 C   0  0  0  0  0  0  0  0  0  0  0  0
   -2.0366   -4.0658    6.8600 C   0  0  0  0  0  0  0  0  0  0  0  0
   -2.9895   -3.0829    7.1075 C   0  0  0  0  0  0  0  0  0  0  0  0
   -3.1260   -2.0185    6.2235 C   0  0  0  0  0  0  0  0  0  0  0  0
   -2.3143   -1.9182    5.0780 C   0  0  0  0  0  0  0  0  0  0  0  0
   -2.5075   -0.7581    4.1937 C   0  0  0  0  0  0  0  0  0  0  0  0
   -3.5461   -0.7444    3.2474 C   0  0  0  0  0  0  0  0  0  0  0  0
   -3.7667    0.3366    2.4043 C   0  0  0  0  0  0  0  0  0  0  0  0
   -4.7794    0.2876    1.5210 N   0  0  0  0  0  0  0  0  0  0  0  0
   -4.9934    1.3357    0.7084 C   0  0  0  0  0  0  0  0  0  0  0  0
   -6.0363    1.2879   -0.2022 C   0  0  0  0  0  0  0  0  0  0  0  0
   -6.3059    2.3571   -1.0766 C   0  0  0  0  0  0  0  0  0  0  0  0
   -7.3585    2.3129   -1.9973 C   0  0  0  0  0  0  0  0  0  0  0  0
   -7.5923    3.3980   -2.8484 C   0  0  0  0  0  0  0  0  0  0  0  0
   -8.6396    3.3926   -3.7871 C   0  0  0  0  0  0  0  0  0  0  0  0
   -8.8432    4.4911   -4.6191 C   0  0  0  0  0  0  0  0  0  0  0  0
   -8.0041    5.5944   -4.5161 C   0  0  0  0  0  0  0  0  0  0  0  0
   -6.9648    5.5937   -3.5809 C   0  0  0  0  0  0  0  0  0  0  0  0
   -6.7391    4.5126   -2.7394 C   0  0  0  0  0  0  0  0  0  0  0  0
   -5.7253    4.5626   -1.8571 N   0  0  0  0  0  0  0  0  0  0  0  0
   -5.5110    3.5140   -1.0453 C   0  0  0  0  0  0  0  0  0  0  0  0
   -4.4674    3.5610   -0.1353 C   0  0  0  0  0  0  0  0  0  0  0  0
   -4.1979    2.4918    0.7392 C   0  0  0  0  0  0  0  0  0  0  0  0
   -3.1451    2.5348    1.6597 C   0  0  0  0  0  0  0  0  0  0  0  0
   -2.9133    1.4502    2.5118 C   0  0  0  0  0  0  0  0  0  0  0  0
   -1.8691    1.4568    3.4506 C   0  0  0  0  0  0  0  0  0  0  0  0
   -1.6709    0.3592    4.2864 C   0  0  0  0  0  0  0  0  0  0  0  0
   -1.3413   -2.9273    4.8162 C   0  0  0  0  0  0  0  0  0  0  0  0
   -0.4896   -2.9225    3.6845 C   0  0  0  0  0  0  0  0  0  0  0  0
    0.4631   -3.9311    3.4512 C   0  0  0  0  0  0  0  0  0  0  0  0
    1.3005   -3.9111    2.3208 C   0  0  0  0  0  0  0  0  0  0  0  0
    2.2622   -4.9199    2.0692 C   0  0  0  0  0  0  0  0  0  0  0  0
    3.9755   -2.8174   -0.0990 C   0  0  0  0  0  0  0  0  0  0  0  0
    3.9574   -1.8200   -1.0647 C   0  0  0  0  0  0  0  0  0  0  0  0
    4.8577   -0.8232   -0.9998 N   0  0  0  0  0  0  0  0  0  0  0  0
    4.8331    0.1447   -1.9303 C   0  0  0  0  0  0  0  0  0  0  0  0
    5.7555    1.1761   -1.8628 C   0  0  0  0  0  0  0  0  0  0  0  0
    5.7733    2.2165   -2.8100 C   0  0  0  0  0  0  0  0  0  0  0  0
    6.7022    3.2607   -2.7453 C   0  0  0  0  0  0  0  0  0  0  0  0
    6.6844    4.2757   -3.7074 C   0  0  0  0  0  0  0  0  0  0  0  0
    7.6004    5.3423   -3.6778 C   0  0  0  0  0  0  0  0  0  0  0  0
    8.2623    7.1597   -4.6281 H   0  0  0  0  0  0  0  0  0  0  0  0
    6.5477    7.0369   -6.4229 H   0  0  0  0  0  0  0  0  0  0  0  0
    4.9393    5.1579   -6.4690 H   0  0  0  0  0  0  0  0  0  0  0  0
    3.1982    1.2107   -4.7420 H   0  0  0  0  0  0  0  0  0  0  0  0
    2.2359   -0.9043   -3.8455 H   0  0  0  0  0  0  0  0  0  0  0  0
    1.3137   -3.0160   -2.8907 H   0  0  0  0  0  0  0  0  0  0  0  0
    1.3936   -4.7648   -1.1622 H   0  0  0  0  0  0  0  0  0  0  0  0
    4.7138   -5.9799   -0.0933 H   0  0  0  0  0  0  0  0  0  0  0  0
    4.8786   -7.7866    1.5746 H   0  0  0  0  0  0  0  0  0  0  0  0
    3.4029   -7.8006    3.5409 H   0  0  0  0  0  0  0  0  0  0  0  0
    1.6233   -6.8039    4.8569 H   0  0  0  0  0  0  0  0  0  0  0  0
   -0.1657   -5.8284    6.2042 H   0  0  0  0  0  0  0  0  0  0  0  0
   -1.9436   -4.8906    7.5639 H   0  0  0  0  0  0  0  0  0  0  0  0
   -3.6238   -3.1454    7.9878 H   0  0  0  0  0  0  0  0  0  0  0  0
   -3.8727   -1.2534    6.4297 H   0  0  0  0  0  0  0  0  0  0  0  0
   -4.2056   -1.6067    3.1634 H   0  0  0  0  0  0  0  0  0  0  0  0
   -6.6527    0.3918   -0.2281 H   0  0  0  0  0  0  0  0  0  0  0  0
   -7.9960    1.4334   -2.0510 H   0  0  0  0  0  0  0  0  0  0  0  0
   -9.3002    2.5330   -3.8736 H   0  0  0  0  0  0  0  0  0  0  0  0
   -9.6530    4.4852   -5.3439 H   0  0  0  0  0  0  0  0  0  0  0  0
   -8.1525    6.4577   -5.1595 H   0  0  0  0  0  0  0  0  0  0  0  0
   -6.3126    6.4608   -3.5066 H   0  0  0  0  0  0  0  0  0  0  0  0
   -3.8500    4.4565   -0.1097 H   0  0  0  0  0  0  0  0  0  0  0  0
   -2.5066    3.4137    1.7134 H   0  0  0  0  0  0  0  0  0  0  0  0
   -1.2075    2.3155    3.5394 H   0  0  0  0  0  0  0  0  0  0  0  0
   -0.8597    0.3765    5.0118 H   0  0  0  0  0  0  0  0  0  0  0  0
   -0.5689   -2.1143    2.9592 H   0  0  0  0  0  0  0  0  0  0  0  0
    1.1993   -3.0831    1.6204 H   0  0  0  0  0  0  0  0  0  0  0  0
    4.7226   -2.7565    0.6905 H   0  0  0  0  0  0  0  0  0  0  0  0
    6.4773    1.1658   -1.0488 H   0  0  0  0  0  0  0  0  0  0  0  0
    7.4390    3.2834   -1.9457 H   0  0  0  0  0  0  0  0  0  0  0  0
    8.3534    5.4027   -2.8954 H   0  0  0  0  0  0  0  0  0  0  0  0
  1  2  4  0
  2  3  4  0
  3  4  4  0
  4  5  4  0
  5  6  4  0
  6  7  4  0
  7  8  4  0
  8  9  4  0
  9 10  4  0
 10 11  4  0
 11 12  4  0
 12 13  4  0
 13 14  1  0
 14 15  4  0
 15 16  4  0
 16 17  4  0
 17 18  4  0
 18 19  4  0
 19 20  4  0
 20 21  4  0
 21 22  4  0
 22 23  4  0
 23 24  4  0
 24 25  4  0
 25 26  4  0
 26 27  1  0
 27 28  4  0
 28 29  4  0
 29 30  4  0
 30 31  4  0
 31 32  4  0
 32 33  4  0
 33 34  4  0
 34 35  4  0
 35 36  4  0
 36 37  4  0
 37 38  4  0
 38 39  4  0
 39 40  4  0
 40 41  4  0
 41 42  4  0
 42 43  4  0
 43 44  4  0
 44 45  4  0
 45 46  4  0
 46 47  4  0
 47 48  4  0
 26 49  4  0
 49 50  4  0
 50 51  4  0
 51 52  4  0
 52 53  4  0
 13 54  4  0
 54 55  4  0
 55 56  4  0
 56 57  4  0
 57 58  4  0
 58 59  4  0
 59 60  4  0
 60 61  4  0
 61 62  4  0
 62  1  4  0
 61  4  4  0
 59  6  4  0
 57  8  4  0
 55 10  4  0
 53 14  4  0
 53 18  4  0
 51 20  4  0
 49 22  4  0
 48 27  4  0
 46 29  4  0
 44 31  4  0
 42 33  4  0
 40 35  4  0
  1 63  1  0
  2 64  1  0
  3 65  1  0
  7 66  1  0
  9 67  1  0
 11 68  1  0
 12 69  1  0
 15 70  1  0
 16 71  1  0
 17 72  1  0
 19 73  1  0
 21 74  1  0
 23 75  1  0
 24 76  1  0
 25 77  1  0
 28 78  1  0
 32 79  1  0
 34 80  1  0
 36 81  1  0
 37 82  1  0
 38 83  1  0
 39 84  1  0
 43 85  1  0
 45 86  1  0
 47 87  1  0
 48 88  1  0
 50 89  1  0
 52 90  1  0
 54 91  1  0
 58 92  1  0
 60 93  1  0
 62 94  1  0
M  END
