
     RDKit          3D

 94107  0  0  0  0  0  0  0  0999 V2000
    5.2007    4.7074    0.3552 C   0  0  0  0  0  0  0  0  0  0  0  0
    5.4175    4.7926   -1.0149 C   0  0  0  0  0  0  0  0  0  0  0  0
    5.2435    3.6618   -1.8183 C   0  0  0  0  0  0  0  0  0  0  0  0
    4.8537    2.4399   -1.2855 C   0  0  0  0  0  0  0  0  0  0  0  0
    4.7002    1.3808   -2.0971 N   0  0  0  0  0  0  0  0  0  0  0  0
    4.3111    0.2045   -1.5795 C   0  0  0  0  0  0  0  0  0  0  0  0
    4.1545   -0.8572   -2.4480 C   0  0  0  0  0  0  0  0  0  0  0  0
    3.7581   -2.1279   -2.0093 C   0  0  0  0  0  0  0  0  0  0  0  0
    3.6188   -3.1847   -2.9177 C   0  0  0  0  0  0  0  0  0  0  0  0
    3.2295   -4.4505   -2.4736 C   0  0  0  0  0  0  0  0  0  0  0  0
    3.0824   -5.5401   -3.3519 C   0  0  0  0  0  0  0  0  0  0  0  0
    2.6951   -6.7868   -2.8655 C   0  0  0  0  0  0  0  0  0  0  0  0
    2.4518   -6.9465   -1.5062 C   0  0  0  0  0  0  0  0  0  0  0  0
    2.6004   -5.8588   -0.6407 C   0  0  0  0  0  0  0  0  0  0  0  0
    2.9889   -4.6076   -1.1001 C   0  0  0  0  0  0  0  0  0  0  0  0
    3.1281   -3.5968   -0.2263 N   0  0  0  0  0  0  0  0  0  0  0  0
    3.4995   -2.3672   -0.6497 C   0  0  0  0  0  0  0  0  0  0  0  0
    3.6482   -1.2920    0.2514 C   0  0  0  0  0  0  0  0  0  0  0  0
    3.4003   -1.5262    1.6984 C   0  0  0  0  0  0  0  0  0  0  0  0
    4.4478   -2.0755    2.4637 C   0  0  0  0  0  0  0  0  0  0  0  0
    4.2925   -2.3168    3.8235 C   0  0  0  0  0  0  0  0  0  0  0  0
    3.0839   -2.0155    4.4424 C   0  0  0  0  0  0  0  0  0  0  0  0
    2.0150   -1.4712    3.7142 C   0  0  0  0  0  0  0  0  0  0  0  0
    0.8004   -1.1877    4.3604 C   0  0  0  0  0  0  0  0  0  0  0  0
   -0.2957   -0.6493    3.6691 C   0  0  0  0  0  0  0  0  0  0  0  0
   -1.5148   -0.3898    4.3142 C   0  0  0  0  0  0  0  0  0  0  0  0
   -2.6232    0.1255    3.6220 C   0  0  0  0  0  0  0  0  0  0  0  0
   -3.8312    0.3434    4.3019 C   0  0  0  0  0  0  0  0  0  0  0  0
   -4.9488    0.8358    3.6370 C   0  0  0  0  0  0  0  0  0  0  0  0
   -4.8717    1.1154    2.2780 C   0  0  0  0  0  0  0  0  0  0  0  0
   -3.6763    0.9168    1.5580 C   0  0  0  0  0  0  0  0  0  0  0  0
   -3.6816    1.2279    0.1009 C   0  0  0  0  0  0  0  0  0  0  0  0
   -3.7072    2.5790   -0.3081 C   0  0  0  0  0  0  0  0  0  0  0  0
   -3.7365    3.5897    0.5909 N   0  0  0  0  0  0  0  0  0  0  0  0
   -3.7724    4.8693    0.1836 C   0  0  0  0  0  0  0  0  0  0  0  0
   -3.8070    5.8871    1.1275 C   0  0  0  0  0  0  0  0  0  0  0  0
   -3.8527    7.2342    0.7557 C   0  0  0  0  0  0  0  0  0  0  0  0
   -3.8598    7.5790   -0.5909 C   0  0  0  0  0  0  0  0  0  0  0  0
   -3.8215    6.5760   -1.5571 C   0  0  0  0  0  0  0  0  0  0  0  0
   -3.7788    5.2229   -1.1739 C   0  0  0  0  0  0  0  0  0  0  0  0
   -3.7437    4.1861   -2.1093 C   0  0  0  0  0  0  0  0  0  0  0  0
   -3.7104    2.8514   -1.6860 C   0  0  0  0  0  0  0  0  0  0  0  0
   -3.6861    1.8076   -2.6207 C   0  0  0  0  0  0  0  0  0  0  0  0
   -3.6744    0.4807   -2.2408 C   0  0  0  0  0  0  0  0  0  0  0  0
   -3.6564   -0.4443   -3.2145 N   0  0  0  0  0  0  0  0  0  0  0  0
   -3.6467   -1.7466   -2.8877 C   0  0  0  0  0  0  0  0  0  0  0  0
   -3.6133   -2.7063   -3.8909 C   0  0  0  0  0  0  0  0  0  0  0  0
   -3.5932   -4.0734   -3.5994 C   0  0  0  0  0  0  0  0  0  0  0  0
   -3.6138   -4.4987   -2.2763 C   0  0  0  0  0  0  0  0  0  0  0  0
   -3.6536   -3.5557   -1.2526 C   0  0  0  0  0  0  0  0  0  0  0  0
   -3.6673   -2.1823   -1.5544 C   0  0  0  0  0  0  0  0  0  0  0  0
   -3.6945   -1.2043   -0.5542 C   0  0  0  0  0  0  0  0  0  0  0  0
   -3.6839    0.1714   -0.8705 C   0  0  0  0  0  0  0  0  0  0  0  0
   -2.5233    0.4167    2.2400 C   0  0  0  0  0  0  0  0  0  0  0  0
   -1.2736    0.1744    1.6143 C   0  0  0  0  0  0  0  0  0  0  0  0
   -0.1724   -0.3717    2.3012 C   0  0  0  0  0  0  0  0  0  0  0  0
    1.0443   -0.6583    1.6516 C   0  0  0  0  0  0  0  0  0  0  0  0
    2.1579   -1.2144    2.3293 C   0  0  0  0  0  0  0  0  0  0  0  0
    4.0592    0.0000   -0.2126 C   0  0  0  0  0  0  0  0  0  0  0  0
    4.2406    1.1236    0.6217 C   0  0  0  0  0  0  0  0  0  0  0  0
    4.6350    2.3601    0.0986 C   0  0  0  0  0  0  0  0  0  0  0  0
    4.8101    3.4929    0.9140 C   0  0  0  0  0  0  0  0  0  0  0  0
    5.3351    5.5817    0.9866 H   0  0  0  0  0  0  0  0  0  0  0  0
    5.7220    5.7341   -1.4640 H   0  0  0  0  0  0  0  0  0  0  0  0
    5.4167    3.7354   -2.8894 H   0  0  0  0  0  0  0  0  0  0  0  0
    4.3545   -0.6842   -3.5043 H   0  0  0  0  0  0  0  0  0  0  0  0
    3.8170   -3.0225   -3.9751 H   0  0  0  0  0  0  0  0  0  0  0  0
    3.2724   -5.4221   -4.4162 H   0  0  0  0  0  0  0  0  0  0  0  0
    2.5854   -7.6287   -3.5442 H   0  0  0  0  0  0  0  0  0  0  0  0
    2.1481   -7.9127   -1.1125 H   0  0  0  0  0  0  0  0  0  0  0  0
    2.4097   -5.9887    0.4223 H   0  0  0  0  0  0  0  0  0  0  0  0
    5.3937   -2.3277    1.9874 H   0  0  0  0  0  0  0  0  0  0  0  0
    5.1089   -2.7468    4.3974 H   0  0  0  0  0  0  0  0  0  0  0  0
    2.9788   -2.2184    5.5061 H   0  0  0  0  0  0  0  0  0  0  0  0
    0.7015   -1.3993    5.4237 H   0  0  0  0  0  0  0  0  0  0  0  0
   -1.6064   -0.6068    5.3772 H   0  0  0  0  0  0  0  0  0  0  0  0
   -3.9136    0.1284    5.3656 H   0  0  0  0  0  0  0  0  0  0  0  0
   -5.8772    1.0039    4.1760 H   0  0  0  0  0  0  0  0  0  0  0  0
   -5.7514    1.5061    1.7697 H   0  0  0  0  0  0  0  0  0  0  0  0
   -3.7973    5.6209    2.1820 H   0  0  0  0  0  0  0  0  0  0  0  0
   -3.8800    8.0065    1.5200 H   0  0  0  0  0  0  0  0  0  0  0  0
   -3.8941    8.6238   -0.8880 H   0  0  0  0  0  0  0  0  0  0  0  0
   -3.8266    6.8526   -2.6088 H   0  0  0  0  0  0  0  0  0  0  0  0
   -3.7479    4.4199   -3.1719 H   0  0  0  0  0  0  0  0  0  0  0  0
   -3.6839    2.0316   -3.6863 H   0  0  0  0  0  0  0  0  0  0  0  0
   -3.5960   -2.3795   -4.9278 H   0  0  0  0  0  0  0  0  0  0  0  0
   -3.5546   -4.7994   -4.4065 H   0  0  0  0  0  0  0  0  0  0  0  0
   -3.5938   -5.5596   -2.0414 H   0  0  0  0  0  0  0  0  0  0  0  0
   -3.6657   -3.8941   -0.2188 H   0  0  0  0  0  0  0  0  0  0  0  0
   -3.7137   -1.5260    0.4850 H   0  0  0  0  0  0  0  0  0  0  0  0
   -1.1521    0.4024    0.5566 H   0  0  0  0  0  0  0  0  0  0  0  0
    1.1170   -0.4529    0.5849 H   0  0  0  0  0  0  0  0  0  0  0  0
    4.0700    1.0399    1.6934 H   0  0  0  0  0  0  0  0  0  0  0  0
    4.6402    3.4325    1.9868 H   0  0  0  0  0  0  0  0  0  0  0  0
  1  2  4  0
  2  3  4  0
  3  4  4  0
  4  5  4  0
  5  6  4  0
  6  7  4  0
  7  8  4  0
  8  9  4  0
  9 10  4  0
 10 11  4  0
 11 12  4  0
 12 13  4  0
 13 14  4  0
 14 15  4  0
 15 16  4  0
 16 17  4  0
 17 18  4  0
 18 19  1  0
 19 20  4  0
 20 21  4  0
 21 22  4  0
 22 23  4  0
 23 24  4  0
 24 25  4  0
 25 26  4  0
 26 27  4  0
 27 28  4  0
 28 29  4  0
 29 30  4  0
 30 31  4  0
 31 32  1  0
 32 33  4  0
 33 34  4  0
 34 35  4  0
 35 36  4  0
 36 37  4  0
 37 38  4  0
 38 39  4  0
 39 40  4  0
 40 41  4  0
 41 42  4  0
 42 43  4  0
 43 44  4  0
 44 45  4  0
 45 46  4  0
 46 47  4  0
 47 48  4  0
 48 49  4  0
 49 50  4  0
 50 51  4  0
 51 52  4  0
 52 53  4  0
 31 54  4  0
 54 55  4  0
 55 56  4  0
 56 57  4  0
 57 58  4  0
 18 59  4  0
 59 60  4  0
 60 61  4  0
 61 62  4  0
 62  1  4  0
 61  4  4  0
 59  6  4  0
 17  8  4  0
 58 19  4  0
 15 10  4  0
 58 23  4  0
 56 25  4  0
 54 27  4  0
 53 32  4  0
 42 33  4  0
 53 44  4  0
 40 35  4  0
 51 46  4  0
  1 63  1  0
  2 64  1  0
  3 65  1  0
  7 66  1  0
  9 67  1  0
 11 68  1  0
 12 69  1  0
 13 70  1  0
 14 71  1  0
 20 72  1  0
 21 73  1  0
 22 74  1  0
 24 75  1  0
 26 76  1  0
 28 77  1  0
 29 78  1  0
 30 79  1  0
 36 80  1  0
 37 81  1  0
 38 82  1  0
 39 83  1  0
 41 84  1  0
 43 85  1  0
 47 86  1  0
 48 87  1  0
 49 88  1  0
 50 89  1  0
 52 90  1  0
 55 91  1  0
 57 92  1  0
 60 93  1  0
 62 94  1  0
M  END
