
     RDKit          3D

 94107  0  0  0  0  0  0  0  0999 V2000
   -1.1267   -6.6257    0.9547 C   0  0  0  0  0  0  0  0  0  0  0  0
   -1.6013   -6.5608    2.2595 C   0  0  0  0  0  0  0  0  0  0  0  0
   -2.2361   -5.4002    2.7123 C   0  0  0  0  0  0  0  0  0  0  0  0
   -2.4112   -4.2941    1.8910 C   0  0  0  0  0  0  0  0  0  0  0  0
   -3.0293   -3.2016    2.3752 N   0  0  0  0  0  0  0  0  0  0  0  0
   -3.1970   -2.1350    1.5763 C   0  0  0  0  0  0  0  0  0  0  0  0
   -3.8355   -1.0089    2.0707 C   0  0  0  0  0  0  0  0  0  0  0  0
   -4.0380    0.1362    1.2774 C   0  0  0  0  0  0  0  0  0  0  0  0
   -4.6793    1.2781    1.7663 C   0  0  0  0  0  0  0  0  0  0  0  0
   -4.8513    2.3994    0.9462 C   0  0  0  0  0  0  0  0  0  0  0  0
   -5.4820    3.5538    1.4376 C   0  0  0  0  0  0  0  0  0  0  0  0
   -5.6347    4.6709    0.6270 C   0  0  0  0  0  0  0  0  0  0  0  0
   -5.1585    4.6358   -0.6780 C   0  0  0  0  0  0  0  0  0  0  0  0
   -4.5267    3.4837   -1.1937 C   0  0  0  0  0  0  0  0  0  0  0  0
   -4.0475    3.5145   -2.5988 C   0  0  0  0  0  0  0  0  0  0  0  0
   -5.0123    3.5706   -3.6250 C   0  0  0  0  0  0  0  0  0  0  0  0
   -4.6388    3.6299   -4.9634 C   0  0  0  0  0  0  0  0  0  0  0  0
   -3.2896    3.6340   -5.3026 C   0  0  0  0  0  0  0  0  0  0  0  0
   -2.2957    3.5733   -4.3145 C   0  0  0  0  0  0  0  0  0  0  0  0
   -0.9378    3.5715   -4.6823 C   0  0  0  0  0  0  0  0  0  0  0  0
    0.0864    3.4931   -3.7247 C   0  0  0  0  0  0  0  0  0  0  0  0
    1.4442    3.4718   -4.0844 C   0  0  0  0  0  0  0  0  0  0  0  0
    2.4632    3.3738   -3.1195 C   0  0  0  0  0  0  0  0  0  0  0  0
    3.8096    3.3443   -3.5135 C   0  0  0  0  0  0  0  0  0  0  0  0
    4.8289    3.2341   -2.5720 C   0  0  0  0  0  0  0  0  0  0  0  0
    4.5146    3.1561   -1.2193 C   0  0  0  0  0  0  0  0  0  0  0  0
    3.1774    3.1880   -0.7830 C   0  0  0  0  0  0  0  0  0  0  0  0
    2.9077    3.1166    0.6710 C   0  0  0  0  0  0  0  0  0  0  0  0
    2.5797    4.3054    1.3552 C   0  0  0  0  0  0  0  0  0  0  0  0
    2.2940    4.2913    2.7147 C   0  0  0  0  0  0  0  0  0  0  0  0
    2.3411    3.0890    3.4085 C   0  0  0  0  0  0  0  0  0  0  0  0
    2.6754    1.8971    2.7453 C   0  0  0  0  0  0  0  0  0  0  0  0
    2.7274    0.6840    3.4413 C   0  0  0  0  0  0  0  0  0  0  0  0
    3.0590   -0.4987    2.7743 C   0  0  0  0  0  0  0  0  0  0  0  0
    3.1217   -1.7396    3.4355 C   0  0  0  0  0  0  0  0  0  0  0  0
    3.4510   -2.9064    2.7649 C   0  0  0  0  0  0  0  0  0  0  0  0
    3.4989   -4.0652    3.4426 N   0  0  0  0  0  0  0  0  0  0  0  0
    3.8186   -5.1946    2.7863 C   0  0  0  0  0  0  0  0  0  0  0  0
    3.8700   -6.3954    3.4813 C   0  0  0  0  0  0  0  0  0  0  0  0
    4.1971   -7.5986    2.8487 C   0  0  0  0  0  0  0  0  0  0  0  0
    4.4812   -7.6105    1.4881 C   0  0  0  0  0  0  0  0  0  0  0  0
    4.4370   -6.4202    0.7663 C   0  0  0  0  0  0  0  0  0  0  0  0
    4.1076   -5.2134    1.4084 C   0  0  0  0  0  0  0  0  0  0  0  0
    4.0547   -4.0004    0.7148 C   0  0  0  0  0  0  0  0  0  0  0  0
    3.7235   -2.8212    1.3901 C   0  0  0  0  0  0  0  0  0  0  0  0
    3.6608   -1.5804    0.7308 C   0  0  0  0  0  0  0  0  0  0  0  0
    3.3329   -0.4154    1.4036 C   0  0  0  0  0  0  0  0  0  0  0  0
    3.2889    0.7425    0.7290 N   0  0  0  0  0  0  0  0  0  0  0  0
    2.9651    1.8918    1.3639 C   0  0  0  0  0  0  0  0  0  0  0  0
    2.1307    3.2959   -1.7459 C   0  0  0  0  0  0  0  0  0  0  0  0
    0.7585    3.3212   -1.4046 C   0  0  0  0  0  0  0  0  0  0  0  0
   -0.2575    3.4245   -2.3689 C   0  0  0  0  0  0  0  0  0  0  0  0
   -1.6126    3.4504   -1.9999 C   0  0  0  0  0  0  0  0  0  0  0  0
   -2.6619    3.5117   -2.9476 C   0  0  0  0  0  0  0  0  0  0  0  0
   -4.3692    2.3434   -0.3795 C   0  0  0  0  0  0  0  0  0  0  0  0
   -3.7586    1.2291   -0.8434 N   0  0  0  0  0  0  0  0  0  0  0  0
   -3.5907    0.1623   -0.0486 C   0  0  0  0  0  0  0  0  0  0  0  0
   -2.9506   -0.9615   -0.5449 C   0  0  0  0  0  0  0  0  0  0  0  0
   -2.7495   -2.1077    0.2460 C   0  0  0  0  0  0  0  0  0  0  0  0
   -2.1077   -3.2477   -0.2506 C   0  0  0  0  0  0  0  0  0  0  0  0
   -1.9281   -4.3658    0.5706 C   0  0  0  0  0  0  0  0  0  0  0  0
   -1.2887   -5.5305    0.1092 C   0  0  0  0  0  0  0  0  0  0  0  0
   -0.6324   -7.5249    0.5964 H   0  0  0  0  0  0  0  0  0  0  0  0
   -1.4809   -7.4085    2.9291 H   0  0  0  0  0  0  0  0  0  0  0  0
   -2.6047   -5.3573    3.7346 H   0  0  0  0  0  0  0  0  0  0  0  0
   -4.1830   -1.0280    3.1015 H   0  0  0  0  0  0  0  0  0  0  0  0
   -5.0409    1.2947    2.7924 H   0  0  0  0  0  0  0  0  0  0  0  0
   -5.8524    3.5898    2.4600 H   0  0  0  0  0  0  0  0  0  0  0  0
   -6.1160    5.5666    1.0104 H   0  0  0  0  0  0  0  0  0  0  0  0
   -5.2707    5.5178   -1.3066 H   0  0  0  0  0  0  0  0  0  0  0  0
   -6.0717    3.5591   -3.3751 H   0  0  0  0  0  0  0  0  0  0  0  0
   -5.3976    3.6680   -5.7400 H   0  0  0  0  0  0  0  0  0  0  0  0
   -3.0164    3.6791   -6.3548 H   0  0  0  0  0  0  0  0  0  0  0  0
   -0.6718    3.6205   -5.7369 H   0  0  0  0  0  0  0  0  0  0  0  0
    1.7119    3.5236   -5.1382 H   0  0  0  0  0  0  0  0  0  0  0  0
    4.0752    3.3981   -4.5669 H   0  0  0  0  0  0  0  0  0  0  0  0
    5.8668    3.2025   -2.8916 H   0  0  0  0  0  0  0  0  0  0  0  0
    5.3192    3.0589   -0.4927 H   0  0  0  0  0  0  0  0  0  0  0  0
    2.5377    5.2474    0.8107 H   0  0  0  0  0  0  0  0  0  0  0  0
    2.0311    5.2123    3.2278 H   0  0  0  0  0  0  0  0  0  0  0  0
    2.1121    3.0850    4.4719 H   0  0  0  0  0  0  0  0  0  0  0  0
    2.5086    0.6586    4.5067 H   0  0  0  0  0  0  0  0  0  0  0  0
    2.9094   -1.8030    4.5005 H   0  0  0  0  0  0  0  0  0  0  0  0
    3.6490   -6.3942    4.5460 H   0  0  0  0  0  0  0  0  0  0  0  0
    4.2282   -8.5207    3.4231 H   0  0  0  0  0  0  0  0  0  0  0  0
    4.7360   -8.5425    0.9905 H   0  0  0  0  0  0  0  0  0  0  0  0
    4.6603   -6.4367   -0.2980 H   0  0  0  0  0  0  0  0  0  0  0  0
    4.2714   -3.9736   -0.3506 H   0  0  0  0  0  0  0  0  0  0  0  0
    3.8712   -1.5142   -0.3347 H   0  0  0  0  0  0  0  0  0  0  0  0
    0.4650    3.2422   -0.3592 H   0  0  0  0  0  0  0  0  0  0  0  0
   -1.8522    3.4009   -0.9399 H   0  0  0  0  0  0  0  0  0  0  0  0
   -2.6008   -0.9378   -1.5751 H   0  0  0  0  0  0  0  0  0  0  0  0
   -1.7490   -3.2647   -1.2774 H   0  0  0  0  0  0  0  0  0  0  0  0
   -0.9149   -5.5889   -0.9105 H   0  0  0  0  0  0  0  0  0  0  0  0
  1  2  4  0
  2  3  4  0
  3  4  4  0
  4  5  4  0
  5  6  4  0
  6  7  4  0
  7  8  4  0
  8  9  4  0
  9 10  4  0
 10 11  4  0
 11 12  4  0
 12 13  4  0
 13 14  4  0
 14 15  1  0
 15 16  4  0
 16 17  4  0
 17 18  4  0
 18 19  4  0
 19 20  4  0
 20 21  4  0
 21 22  4  0
 22 23  4  0
 23 24  4  0
 24 25  4  0
 25 26  4  0
 26 27  4  0
 27 28  1  0
 28 29  4  0
 29 30  4  0
 30 31  4  0
 31 32  4  0
 32 33  4  0
 33 34  4  0
 34 35  4  0
 35 36  4  0
 36 37  4  0
 37 38  4  0
 38 39  4  0
 39 40  4  0
 40 41  4  0
 41 42  4  0
 42 43  4  0
 43 44  4  0
 44 45  4  0
 45 46  4  0
 46 47  4  0
 47 48  4  0
 48 49  4  0
 27 50  4  0
 50 51  4  0
 51 52  4  0
 52 53  4  0
 53 54  4  0
 14 55  4  0
 55 56  4  0
 56 57  4  0
 57 58  4  0
 58 59  4  0
 59 60  4  0
 60 61  4  0
 61 62  4  0
 62  1  4  0
 61  4  4  0
 59  6  4  0
 57  8  4  0
 55 10  4  0
 54 15  4  0
 54 19  4  0
 52 21  4  0
 50 23  4  0
 49 28  4  0
 49 32  4  0
 47 34  4  0
 45 36  4  0
 43 38  4  0
  1 63  1  0
  2 64  1  0
  3 65  1  0
  7 66  1  0
  9 67  1  0
 11 68  1  0
 12 69  1  0
 13 70  1  0
 16 71  1  0
 17 72  1  0
 18 73  1  0
 20 74  1  0
 22 75  1  0
 24 76  1  0
 25 77  1  0
 26 78  1  0
 29 79  1  0
 30 80  1  0
 31 81  1  0
 33 82  1  0
 35 83  1  0
 39 84  1  0
 40 85  1  0
 41 86  1  0
 42 87  1  0
 44 88  1  0
 46 89  1  0
 51 90  1  0
 53 91  1  0
 58 92  1  0
 60 93  1  0
 62 94  1  0
M  END
