
     RDKit          3D

 94107  0  0  0  0  0  0  0  0999 V2000
   -3.6950   -0.0237    7.7555 C   0  0  0  0  0  0  0  0  0  0  0  0
   -3.5704   -1.3536    7.3710 C   0  0  0  0  0  0  0  0  0  0  0  0
   -3.5350   -1.6847    6.0130 C   0  0  0  0  0  0  0  0  0  0  0  0
   -3.6213   -0.7165    5.0211 C   0  0  0  0  0  0  0  0  0  0  0  0
   -3.5824   -1.0880    3.7287 N   0  0  0  0  0  0  0  0  0  0  0  0
   -3.6667   -0.1475    2.7727 C   0  0  0  0  0  0  0  0  0  0  0  0
   -3.6275   -0.5238    1.4393 C   0  0  0  0  0  0  0  0  0  0  0  0
   -3.7149    0.4206    0.3984 C   0  0  0  0  0  0  0  0  0  0  0  0
   -3.6789    0.0477   -0.9506 C   0  0  0  0  0  0  0  0  0  0  0  0
   -3.7707    1.0118   -1.9746 C   0  0  0  0  0  0  0  0  0  0  0  0
   -3.8947    2.3533   -1.5570 C   0  0  0  0  0  0  0  0  0  0  0  0
   -3.9297    2.7218   -0.2644 N   0  0  0  0  0  0  0  0  0  0  0  0
   -3.8433    1.7840    0.6918 C   0  0  0  0  0  0  0  0  0  0  0  0
   -3.8810    2.1625    2.0243 C   0  0  0  0  0  0  0  0  0  0  0  0
   -3.7954    1.2194    3.0656 C   0  0  0  0  0  0  0  0  0  0  0  0
   -3.8346    1.5979    4.4122 C   0  0  0  0  0  0  0  0  0  0  0  0
   -3.7477    0.6285    5.4170 C   0  0  0  0  0  0  0  0  0  0  0  0
   -3.7838    0.9681    6.7814 C   0  0  0  0  0  0  0  0  0  0  0  0
   -3.9881    3.3476   -2.5190 C   0  0  0  0  0  0  0  0  0  0  0  0
   -3.9658    3.0601   -3.8829 C   0  0  0  0  0  0  0  0  0  0  0  0
   -3.8458    1.7422   -4.3039 C   0  0  0  0  0  0  0  0  0  0  0  0
   -3.7443    0.7010   -3.3668 C   0  0  0  0  0  0  0  0  0  0  0  0
   -3.6223   -0.6847   -3.8656 C   0  0  0  0  0  0  0  0  0  0  0  0
   -4.8051   -1.4050   -4.1166 C   0  0  0  0  0  0  0  0  0  0  0  0
   -4.7591   -2.7136   -4.5839 C   0  0  0  0  0  0  0  0  0  0  0  0
   -3.5282   -3.3231   -4.8097 C   0  0  0  0  0  0  0  0  0  0  0  0
   -2.3274   -2.6365   -4.5736 C   0  0  0  0  0  0  0  0  0  0  0  0
   -1.0943   -3.2697   -4.8072 C   0  0  0  0  0  0  0  0  0  0  0  0
    0.1265   -2.6147   -4.5801 C   0  0  0  0  0  0  0  0  0  0  0  0
    1.3588   -3.2475   -4.8104 C   0  0  0  0  0  0  0  0  0  0  0  0
    2.5806   -2.5910   -4.5818 C   0  0  0  0  0  0  0  0  0  0  0  0
    3.7941   -3.2544   -4.8205 C   0  0  0  0  0  0  0  0  0  0  0  0
    5.0135   -2.6204   -4.5998 C   0  0  0  0  0  0  0  0  0  0  0  0
    5.0357   -1.3105   -4.1344 C   0  0  0  0  0  0  0  0  0  0  0  0
    3.8399   -0.6135   -3.8807 C   0  0  0  0  0  0  0  0  0  0  0  0
    3.9334    0.7740   -3.3809 C   0  0  0  0  0  0  0  0  0  0  0  0
    4.0679    1.8140   -4.3152 C   0  0  0  0  0  0  0  0  0  0  0  0
    4.1462    3.1345   -3.8926 C   0  0  0  0  0  0  0  0  0  0  0  0
    4.0913    3.4259   -2.5304 C   0  0  0  0  0  0  0  0  0  0  0  0
    3.9647    2.4325   -1.5712 C   0  0  0  0  0  0  0  0  0  0  0  0
    3.9208    2.8043   -0.2798 N   0  0  0  0  0  0  0  0  0  0  0  0
    3.7987    1.8676    0.6738 C   0  0  0  0  0  0  0  0  0  0  0  0
    3.7523    2.2490    2.0054 C   0  0  0  0  0  0  0  0  0  0  0  0
    3.6240    1.3060    3.0426 C   0  0  0  0  0  0  0  0  0  0  0  0
    3.5754    1.6867    4.3883 C   0  0  0  0  0  0  0  0  0  0  0  0
    3.4468    0.7170    5.3886 C   0  0  0  0  0  0  0  0  0  0  0  0
    3.3940    1.0584    6.7522 C   0  0  0  0  0  0  0  0  0  0  0  0
    3.2652    0.0660    7.7214 C   0  0  0  0  0  0  0  0  0  0  0  0
    3.1890   -1.2664    7.3325 C   0  0  0  0  0  0  0  0  0  0  0  0
    3.2421   -1.5994    5.9755 C   0  0  0  0  0  0  0  0  0  0  0  0
    3.3702   -0.6307    4.9889 C   0  0  0  0  0  0  0  0  0  0  0  0
    3.4166   -1.0044    3.6977 N   0  0  0  0  0  0  0  0  0  0  0  0
    3.5397   -0.0635    2.7464 C   0  0  0  0  0  0  0  0  0  0  0  0
    3.5865   -0.4428    1.4146 C   0  0  0  0  0  0  0  0  0  0  0  0
    3.7142    0.5014    0.3780 C   0  0  0  0  0  0  0  0  0  0  0  0
    3.7607    0.1248   -0.9693 C   0  0  0  0  0  0  0  0  0  0  0  0
    3.8868    1.0883   -1.9901 C   0  0  0  0  0  0  0  0  0  0  0  0
    2.5879   -1.2576   -4.1086 C   0  0  0  0  0  0  0  0  0  0  0  0
    1.3361   -0.6356   -3.8841 C   0  0  0  0  0  0  0  0  0  0  0  0
    0.1145   -1.2937   -4.1108 C   0  0  0  0  0  0  0  0  0  0  0  0
   -1.1185   -0.6588   -3.8777 C   0  0  0  0  0  0  0  0  0  0  0  0
   -2.3589   -1.3040   -4.0983 C   0  0  0  0  0  0  0  0  0  0  0  0
   -3.7230    0.2409    8.8093 H   0  0  0  0  0  0  0  0  0  0  0  0
   -3.5002   -2.1369    8.1214 H   0  0  0  0  0  0  0  0  0  0  0  0
   -3.4371   -2.7271    5.7189 H   0  0  0  0  0  0  0  0  0  0  0  0
   -3.5269   -1.5823    1.2079 H   0  0  0  0  0  0  0  0  0  0  0  0
   -3.5759   -1.0058   -1.2037 H   0  0  0  0  0  0  0  0  0  0  0  0
   -3.9805    3.2213    2.2535 H   0  0  0  0  0  0  0  0  0  0  0  0
   -3.9333    2.6478    4.6784 H   0  0  0  0  0  0  0  0  0  0  0  0
   -3.8811    2.0064    7.0901 H   0  0  0  0  0  0  0  0  0  0  0  0
   -4.0834    4.3817   -2.1948 H   0  0  0  0  0  0  0  0  0  0  0  0
   -4.0447    3.8636   -4.6106 H   0  0  0  0  0  0  0  0  0  0  0  0
   -3.8302    1.5216   -5.3702 H   0  0  0  0  0  0  0  0  0  0  0  0
   -5.7736   -0.9391   -3.9418 H   0  0  0  0  0  0  0  0  0  0  0  0
   -5.6806   -3.2586   -4.7716 H   0  0  0  0  0  0  0  0  0  0  0  0
   -3.5135   -4.3482   -5.1747 H   0  0  0  0  0  0  0  0  0  0  0  0
   -1.0843   -4.2952   -5.1740 H   0  0  0  0  0  0  0  0  0  0  0  0
    1.3665   -4.2740   -5.1739 H   0  0  0  0  0  0  0  0  0  0  0  0
    3.7982   -4.2802   -5.1840 H   0  0  0  0  0  0  0  0  0  0  0  0
    5.9449   -3.1477   -4.7893 H   0  0  0  0  0  0  0  0  0  0  0  0
    5.9954   -0.8258   -3.9620 H   0  0  0  0  0  0  0  0  0  0  0  0
    4.1042    1.5910   -5.3802 H   0  0  0  0  0  0  0  0  0  0  0  0
    4.2477    3.9376   -4.6176 H   0  0  0  0  0  0  0  0  0  0  0  0
    4.1509    4.4624   -2.2054 H   0  0  0  0  0  0  0  0  0  0  0  0
    3.8174    3.3100    2.2370 H   0  0  0  0  0  0  0  0  0  0  0  0
    3.6375    2.7386    4.6571 H   0  0  0  0  0  0  0  0  0  0  0  0
    3.4528    2.0988    7.0636 H   0  0  0  0  0  0  0  0  0  0  0  0
    3.2243    0.3317    8.7746 H   0  0  0  0  0  0  0  0  0  0  0  0
    3.0881   -2.0503    8.0786 H   0  0  0  0  0  0  0  0  0  0  0  0
    3.1815   -2.6439    5.6785 H   0  0  0  0  0  0  0  0  0  0  0  0
    3.5201   -1.5035    1.1807 H   0  0  0  0  0  0  0  0  0  0  0  0
    3.6959   -0.9316   -1.2234 H   0  0  0  0  0  0  0  0  0  0  0  0
    1.3067    0.3916   -3.5224 H   0  0  0  0  0  0  0  0  0  0  0  0
   -1.1072    0.3676   -3.5128 H   0  0  0  0  0  0  0  0  0  0  0  0
  1  2  4  0
  2  3  4  0
  3  4  4  0
  4  5  4  0
  5  6  4  0
  6  7  4  0
  7  8  4  0
  8  9  4  0
  9 10  4  0
 10 11  4  0
 11 12  4  0
 12 13  4  0
 13 14  4  0
 14 15  4  0
 15 16  4  0
 16 17  4  0
 17 18  4  0
 11 19  4  0
 19 20  4  0
 20 21  4  0
 21 22  4  0
 22 23  1  0
 23 24  4  0
 24 25  4  0
 25 26  4  0
 26 27  4  0
 27 28  4  0
 28 29  4  0
 29 30  4  0
 30 31  4  0
 31 32  4  0
 32 33  4  0
 33 34  4  0
 34 35  4  0
 35 36  1  0
 36 37  4  0
 37 38  4  0
 38 39  4  0
 39 40  4  0
 40 41  4  0
 41 42  4  0
 42 43  4  0
 43 44  4  0
 44 45  4  0
 45 46  4  0
 46 47  4  0
 47 48  4  0
 48 49  4  0
 49 50  4  0
 50 51  4  0
 51 52  4  0
 52 53  4  0
 53 54  4  0
 54 55  4  0
 55 56  4  0
 56 57  4  0
 35 58  4  0
 58 59  4  0
 59 60  4  0
 60 61  4  0
 61 62  4  0
 18  1  4  0
 62 23  4  0
 17  4  4  0
 62 27  4  0
 15  6  4  0
 60 29  4  0
 13  8  4  0
 58 31  4  0
 22 10  4  0
 57 36  4  0
 57 40  4  0
 55 42  4  0
 53 44  4  0
 51 46  4  0
  1 63  1  0
  2 64  1  0
  3 65  1  0
  7 66  1  0
  9 67  1  0
 14 68  1  0
 16 69  1  0
 18 70  1  0
 19 71  1  0
 20 72  1  0
 21 73  1  0
 24 74  1  0
 25 75  1  0
 26 76  1  0
 28 77  1  0
 30 78  1  0
 32 79  1  0
 33 80  1  0
 34 81  1  0
 37 82  1  0
 38 83  1  0
 39 84  1  0
 43 85  1  0
 45 86  1  0
 47 87  1  0
 48 88  1  0
 49 89  1  0
 50 90  1  0
 54 91  1  0
 56 92  1  0
 59 93  1  0
 61 94  1  0
M  END
