
     RDKit          3D

 90103  0  0  0  0  0  0  0  0999 V2000
   -5.3500   -5.1130    0.8062 C   0  0  0  0  0  0  0  0  0  0  0  0
   -4.8428   -5.2395    2.0866 C   0  0  0  0  0  0  0  0  0  0  0  0
   -4.2836   -4.1352    2.7315 C   0  0  0  0  0  0  0  0  0  0  0  0
   -4.2263   -2.8613    2.0819 C   0  0  0  0  0  0  0  0  0  0  0  0
   -4.7434   -2.7178    0.7688 C   0  0  0  0  0  0  0  0  0  0  0  0
   -5.2995   -3.8771    0.1649 C   0  0  0  0  0  0  0  0  0  0  0  0
   -4.6858   -1.4405    0.1187 C   0  0  0  0  0  0  0  0  0  0  0  0
   -5.1838   -1.2314   -1.1904 C   0  0  0  0  0  0  0  0  0  0  0  0
   -5.1272    0.0026   -1.8249 C   0  0  0  0  0  0  0  0  0  0  0  0
   -4.5670    1.0820   -1.1661 C   0  0  0  0  0  0  0  0  0  0  0  0
   -4.0544    0.9582    0.1380 C   0  0  0  0  0  0  0  0  0  0  0  0
   -4.1122   -0.3220    0.7885 C   0  0  0  0  0  0  0  0  0  0  0  0
   -3.5961   -0.4769    2.1043 C   0  0  0  0  0  0  0  0  0  0  0  0
   -3.0376    0.6661    2.7204 C   0  0  0  0  0  0  0  0  0  0  0  0
   -2.9842    1.9067    2.0921 C   0  0  0  0  0  0  0  0  0  0  0  0
   -3.4867    2.0745    0.8026 C   0  0  0  0  0  0  0  0  0  0  0  0
   -3.4054    3.4240    0.2001 C   0  0  0  0  0  0  0  0  0  0  0  0
   -4.4988    4.2937    0.3726 C   0  0  0  0  0  0  0  0  0  0  0  0
   -4.4834    5.5770   -0.1619 C   0  0  0  0  0  0  0  0  0  0  0  0
   -3.3709    6.0142   -0.8745 C   0  0  0  0  0  0  0  0  0  0  0  0
   -2.2599    5.1780   -1.0639 C   0  0  0  0  0  0  0  0  0  0  0  0
   -1.1437    5.6396   -1.7820 C   0  0  0  0  0  0  0  0  0  0  0  0
   -0.0135    4.8325   -1.9870 C   0  0  0  0  0  0  0  0  0  0  0  0
    1.1050    5.2970   -2.6967 C   0  0  0  0  0  0  0  0  0  0  0  0
    2.2398    4.4924   -2.8952 C   0  0  0  0  0  0  0  0  0  0  0  0
    3.3430    4.9929   -3.6033 C   0  0  0  0  0  0  0  0  0  0  0  0
    4.4775    4.2131   -3.8064 C   0  0  0  0  0  0  0  0  0  0  0  0
    4.5234    2.9182   -3.3024 C   0  0  0  0  0  0  0  0  0  0  0  0
    3.4373    2.3808   -2.5862 C   0  0  0  0  0  0  0  0  0  0  0  0
    3.5540    0.9941   -2.0818 C   0  0  0  0  0  0  0  0  0  0  0  0
    3.2177   -0.0431   -2.9503 C   0  0  0  0  0  0  0  0  0  0  0  0
    3.3072   -1.3703   -2.5416 C   0  0  0  0  0  0  0  0  0  0  0  0
    3.7362   -1.7422   -1.2473 C   0  0  0  0  0  0  0  0  0  0  0  0
    3.8267   -3.1115   -0.8299 C   0  0  0  0  0  0  0  0  0  0  0  0
    3.4988   -4.2080   -1.6714 C   0  0  0  0  0  0  0  0  0  0  0  0
    3.5910   -5.5344   -1.2547 C   0  0  0  0  0  0  0  0  0  0  0  0
    4.0177   -5.8187    0.0297 C   0  0  0  0  0  0  0  0  0  0  0  0
    4.3536   -4.7827    0.9026 C   0  0  0  0  0  0  0  0  0  0  0  0
    4.2630   -3.4170    0.4848 C   0  0  0  0  0  0  0  0  0  0  0  0
    4.6102   -2.3805    1.3889 C   0  0  0  0  0  0  0  0  0  0  0  0
    5.0364   -2.7726    2.6859 C   0  0  0  0  0  0  0  0  0  0  0  0
    5.1207   -4.1055    3.0827 C   0  0  0  0  0  0  0  0  0  0  0  0
    4.7798   -5.1065    2.1915 C   0  0  0  0  0  0  0  0  0  0  0  0
    4.5198   -1.0121    0.9688 C   0  0  0  0  0  0  0  0  0  0  0  0
    4.8513    0.0679    1.8226 C   0  0  0  0  0  0  0  0  0  0  0  0
    4.7661    1.3942    1.4199 C   0  0  0  0  0  0  0  0  0  0  0  0
    4.3431    1.6904    0.1368 C   0  0  0  0  0  0  0  0  0  0  0  0
    3.9926    0.6752   -0.7715 C   0  0  0  0  0  0  0  0  0  0  0  0
    4.0832   -0.6956   -0.3495 C   0  0  0  0  0  0  0  0  0  0  0  0
    2.2715    3.1755   -2.3777 C   0  0  0  0  0  0  0  0  0  0  0  0
    1.1320    2.7221   -1.6711 C   0  0  0  0  0  0  0  0  0  0  0  0
   -0.0005    3.5303   -1.4677 C   0  0  0  0  0  0  0  0  0  0  0  0
   -1.1187    3.0659   -0.7528 C   0  0  0  0  0  0  0  0  0  0  0  0
   -2.2633    3.8678   -0.5289 C   0  0  0  0  0  0  0  0  0  0  0  0
   -3.6529   -1.7531    2.7566 C   0  0  0  0  0  0  0  0  0  0  0  0
   -3.1591   -1.9825    4.0688 C   0  0  0  0  0  0  0  0  0  0  0  0
   -3.2202   -3.2271    4.6923 C   0  0  0  0  0  0  0  0  0  0  0  0
   -3.7815   -4.2994    4.0234 C   0  0  0  0  0  0  0  0  0  0  0  0
   -5.7854   -5.9717    0.3024 H   0  0  0  0  0  0  0  0  0  0  0  0
   -4.8881   -6.2094    2.5764 H   0  0  0  0  0  0  0  0  0  0  0  0
   -5.7143   -3.8455   -0.8381 H   0  0  0  0  0  0  0  0  0  0  0  0
   -5.6352   -2.0377   -1.7602 H   0  0  0  0  0  0  0  0  0  0  0  0
   -5.5177    0.1197   -2.8322 H   0  0  0  0  0  0  0  0  0  0  0  0
   -4.5345    2.0325   -1.6950 H   0  0  0  0  0  0  0  0  0  0  0  0
   -2.6225    0.6245    3.7228 H   0  0  0  0  0  0  0  0  0  0  0  0
   -2.5399    2.7492    2.6197 H   0  0  0  0  0  0  0  0  0  0  0  0
   -5.3734    3.9612    0.9295 H   0  0  0  0  0  0  0  0  0  0  0  0
   -5.3363    6.2360   -0.0224 H   0  0  0  0  0  0  0  0  0  0  0  0
   -3.3772    7.0225   -1.2836 H   0  0  0  0  0  0  0  0  0  0  0  0
   -1.1523    6.6502   -2.1874 H   0  0  0  0  0  0  0  0  0  0  0  0
    1.0924    6.3083   -3.0998 H   0  0  0  0  0  0  0  0  0  0  0  0
    3.3270    6.0042   -4.0046 H   0  0  0  0  0  0  0  0  0  0  0  0
    5.3252    4.6139   -4.3554 H   0  0  0  0  0  0  0  0  0  0  0  0
    5.4169    2.3173   -3.4639 H   0  0  0  0  0  0  0  0  0  0  0  0
    2.8751    0.1785   -3.9597 H   0  0  0  0  0  0  0  0  0  0  0  0
    3.0228   -2.1135   -3.2802 H   0  0  0  0  0  0  0  0  0  0  0  0
    3.1578   -4.0535   -2.6907 H   0  0  0  0  0  0  0  0  0  0  0  0
    3.3290   -6.3398   -1.9354 H   0  0  0  0  0  0  0  0  0  0  0  0
    4.0855   -6.8581    0.3430 H   0  0  0  0  0  0  0  0  0  0  0  0
    5.3183   -2.0365    3.4327 H   0  0  0  0  0  0  0  0  0  0  0  0
    5.4524   -4.3557    4.0867 H   0  0  0  0  0  0  0  0  0  0  0  0
    4.8499   -6.1430    2.5135 H   0  0  0  0  0  0  0  0  0  0  0  0
    5.1902   -0.0981    2.8405 H   0  0  0  0  0  0  0  0  0  0  0  0
    5.0292    2.1939    2.1069 H   0  0  0  0  0  0  0  0  0  0  0  0
    4.2864    2.7403   -0.1440 H   0  0  0  0  0  0  0  0  0  0  0  0
    1.1255    1.7131   -1.2596 H   0  0  0  0  0  0  0  0  0  0  0  0
   -1.0934    2.0499   -0.3596 H   0  0  0  0  0  0  0  0  0  0  0  0
   -2.7070   -1.1833    4.6484 H   0  0  0  0  0  0  0  0  0  0  0  0
   -2.8289   -3.3532    5.6982 H   0  0  0  0  0  0  0  0  0  0  0  0
   -3.8234   -5.2657    4.5210 H   0  0  0  0  0  0  0  0  0  0  0  0
  1  2  4  0
  2  3  4  0
  3  4  4  0
  4  5  4  0
  5  6  4  0
  5  7  4  0
  7  8  4  0
  8  9  4  0
  9 10  4  0
 10 11  4  0
 11 12  4  0
 12 13  4  0
 13 14  4  0
 14 15  4  0
 15 16  4  0
 16 17  1  0
 17 18  4  0
 18 19  4  0
 19 20  4  0
 20 21  4  0
 21 22  4  0
 22 23  4  0
 23 24  4  0
 24 25  4  0
 25 26  4  0
 26 27  4  0
 27 28  4  0
 28 29  4  0
 29 30  1  0
 30 31  4  0
 31 32  4  0
 32 33  4  0
 33 34  4  0
 34 35  4  0
 35 36  4  0
 36 37  4  0
 37 38  4  0
 38 39  4  0
 39 40  4  0
 40 41  4  0
 41 42  4  0
 42 43  4  0
 40 44  4  0
 44 45  4  0
 45 46  4  0
 46 47  4  0
 47 48  4  0
 48 49  4  0
 29 50  4  0
 50 51  4  0
 51 52  4  0
 52 53  4  0
 53 54  4  0
 13 55  4  0
 55 56  4  0
 56 57  4  0
 57 58  4  0
  6  1  4  0
 12  7  4  0
 54 17  4  0
 58  3  4  0
 55  4  4  0
 16 11  4  0
 54 21  4  0
 52 23  4  0
 50 25  4  0
 48 30  4  0
 49 33  4  0
 39 34  4  0
 49 44  4  0
 43 38  4  0
  1 59  1  0
  2 60  1  0
  6 61  1  0
  8 62  1  0
  9 63  1  0
 10 64  1  0
 14 65  1  0
 15 66  1  0
 18 67  1  0
 19 68  1  0
 20 69  1  0
 22 70  1  0
 24 71  1  0
 26 72  1  0
 27 73  1  0
 28 74  1  0
 31 75  1  0
 32 76  1  0
 35 77  1  0
 36 78  1  0
 37 79  1  0
 41 80  1  0
 42 81  1  0
 43 82  1  0
 45 83  1  0
 46 84  1  0
 47 85  1  0
 51 86  1  0
 53 87  1  0
 56 88  1  0
 57 89  1  0
 58 90  1  0
M  END
