
     RDKit          3D

 96109  0  0  0  0  0  0  0  0999 V2000
    7.5808    3.4530    6.6983 C   0  0  0  0  0  0  0  0  0  0  0  0
    7.5400    2.4562    5.7224 C   0  0  0  0  0  0  0  0  0  0  0  0
    6.7335    2.6005    4.5815 C   0  0  0  0  0  0  0  0  0  0  0  0
    6.6814    1.6067    3.5903 C   0  0  0  0  0  0  0  0  0  0  0  0
    5.8738    1.7535    2.4499 C   0  0  0  0  0  0  0  0  0  0  0  0
    5.8167    0.7657    1.4562 C   0  0  0  0  0  0  0  0  0  0  0  0
    5.0027    0.9291    0.3211 C   0  0  0  0  0  0  0  0  0  0  0  0
    4.9306   -0.0434   -0.6826 C   0  0  0  0  0  0  0  0  0  0  0  0
    4.1095    0.1563   -1.7975 C   0  0  0  0  0  0  0  0  0  0  0  0
    4.0067   -0.7995   -2.8259 C   0  0  0  0  0  0  0  0  0  0  0  0
    3.1721   -0.5824   -3.9303 C   0  0  0  0  0  0  0  0  0  0  0  0
    3.0487   -1.5945   -4.9906 C   0  0  0  0  0  0  0  0  0  0  0  0
    4.0133   -1.6086   -6.0147 C   0  0  0  0  0  0  0  0  0  0  0  0
    3.9517   -2.5449   -7.0412 C   0  0  0  0  0  0  0  0  0  0  0  0
    2.9241   -3.4838   -7.0592 C   0  0  0  0  0  0  0  0  0  0  0  0
    1.9437   -3.5015   -6.0552 C   0  0  0  0  0  0  0  0  0  0  0  0
    0.9142   -4.4585   -6.0879 C   0  0  0  0  0  0  0  0  0  0  0  0
   -0.0830   -4.5047   -5.1000 C   0  0  0  0  0  0  0  0  0  0  0  0
   -1.1111   -5.4605   -5.1304 C   0  0  0  0  0  0  0  0  0  0  0  0
   -2.1091   -5.5039   -4.1411 C   0  0  0  0  0  0  0  0  0  0  0  0
   -3.1212   -6.4736   -4.2040 C   0  0  0  0  0  0  0  0  0  0  0  0
   -4.1190   -6.5311   -3.2355 C   0  0  0  0  0  0  0  0  0  0  0  0
   -4.1176   -5.6156   -2.1887 C   0  0  0  0  0  0  0  0  0  0  0  0
   -3.1194   -4.6284   -2.0903 C   0  0  0  0  0  0  0  0  0  0  0  0
   -3.1827   -3.6914   -0.9574 C   0  0  0  0  0  0  0  0  0  0  0  0
   -2.4282   -3.9083    0.1997 C   0  0  0  0  0  0  0  0  0  0  0  0
   -2.5078   -3.0187    1.2777 C   0  0  0  0  0  0  0  0  0  0  0  0
   -3.3285   -1.9007    1.2439 C   0  0  0  0  0  0  0  0  0  0  0  0
   -3.3729   -1.0824    2.3096 N   0  0  0  0  0  0  0  0  0  0  0  0
   -4.1689    0.0006    2.2748 C   0  0  0  0  0  0  0  0  0  0  0  0
   -4.2131    0.8460    3.3747 C   0  0  0  0  0  0  0  0  0  0  0  0
   -5.0219    1.9957    3.4075 C   0  0  0  0  0  0  0  0  0  0  0  0
   -5.0527    2.8391    4.5307 C   0  0  0  0  0  0  0  0  0  0  0  0
   -5.8612    3.9872    4.5615 C   0  0  0  0  0  0  0  0  0  0  0  0
   -5.8927    4.8310    5.6838 C   0  0  0  0  0  0  0  0  0  0  0  0
   -6.7014    5.9682    5.6990 C   0  0  0  0  0  0  0  0  0  0  0  0
   -7.4882    6.2762    4.5936 C   0  0  0  0  0  0  0  0  0  0  0  0
   -7.4678    5.4475    3.4709 C   0  0  0  0  0  0  0  0  0  0  0  0
   -6.6592    4.2995    3.4401 C   0  0  0  0  0  0  0  0  0  0  0  0
   -6.6277    3.4555    2.3179 C   0  0  0  0  0  0  0  0  0  0  0  0
   -5.8180    2.3077    2.2896 C   0  0  0  0  0  0  0  0  0  0  0  0
   -5.7817    1.4607    1.1727 C   0  0  0  0  0  0  0  0  0  0  0  0
   -4.9655    0.3157    1.1610 C   0  0  0  0  0  0  0  0  0  0  0  0
   -4.9142   -0.5435    0.0574 C   0  0  0  0  0  0  0  0  0  0  0  0
   -4.0893   -1.6731    0.0832 C   0  0  0  0  0  0  0  0  0  0  0  0
   -4.0131   -2.5637   -1.0049 C   0  0  0  0  0  0  0  0  0  0  0  0
   -2.0947   -4.5671   -3.0798 C   0  0  0  0  0  0  0  0  0  0  0  0
   -1.0515   -3.6110   -3.0669 C   0  0  0  0  0  0  0  0  0  0  0  0
   -0.0515   -3.5711   -4.0549 C   0  0  0  0  0  0  0  0  0  0  0  0
    0.9798   -2.6164   -4.0193 C   0  0  0  0  0  0  0  0  0  0  0  0
    1.9932   -2.5535   -5.0059 C   0  0  0  0  0  0  0  0  0  0  0  0
    2.4514    0.6143   -3.9909 C   0  0  0  0  0  0  0  0  0  0  0  0
    2.5578    1.5602   -2.9648 C   0  0  0  0  0  0  0  0  0  0  0  0
    3.3747    1.3536   -1.8628 C   0  0  0  0  0  0  0  0  0  0  0  0
    3.4355    2.2919   -0.9029 N   0  0  0  0  0  0  0  0  0  0  0  0
    4.2288    2.0914    0.1641 C   0  0  0  0  0  0  0  0  0  0  0  0
    4.2935    3.0623    1.1537 C   0  0  0  0  0  0  0  0  0  0  0  0
    5.1006    2.9194    2.2963 C   0  0  0  0  0  0  0  0  0  0  0  0
    5.1519    3.9142    3.2870 C   0  0  0  0  0  0  0  0  0  0  0  0
    5.9584    3.7698    4.4278 C   0  0  0  0  0  0  0  0  0  0  0  0
    6.0102    4.7639    5.4187 C   0  0  0  0  0  0  0  0  0  0  0  0
    6.8165    4.6057    6.5466 C   0  0  0  0  0  0  0  0  0  0  0  0
    8.2093    3.3280    7.5760 H   0  0  0  0  0  0  0  0  0  0  0  0
    8.1449    1.5626    5.8596 H   0  0  0  0  0  0  0  0  0  0  0  0
    7.2795    0.7051    3.7099 H   0  0  0  0  0  0  0  0  0  0  0  0
    6.4104   -0.1400    1.5645 H   0  0  0  0  0  0  0  0  0  0  0  0
    5.5135   -0.9573   -0.5959 H   0  0  0  0  0  0  0  0  0  0  0  0
    4.5712   -1.7283   -2.7619 H   0  0  0  0  0  0  0  0  0  0  0  0
    4.8207   -0.8782   -6.0123 H   0  0  0  0  0  0  0  0  0  0  0  0
    4.7030   -2.5431   -7.8266 H   0  0  0  0  0  0  0  0  0  0  0  0
    2.8939   -4.2083   -7.8707 H   0  0  0  0  0  0  0  0  0  0  0  0
    0.8877   -5.1837   -6.8997 H   0  0  0  0  0  0  0  0  0  0  0  0
   -1.1343   -6.1859   -5.9421 H   0  0  0  0  0  0  0  0  0  0  0  0
   -3.1401   -7.1983   -5.0157 H   0  0  0  0  0  0  0  0  0  0  0  0
   -4.8959   -7.2886   -3.2965 H   0  0  0  0  0  0  0  0  0  0  0  0
   -4.9024   -5.6723   -1.4361 H   0  0  0  0  0  0  0  0  0  0  0  0
   -1.7722   -4.7737    0.2720 H   0  0  0  0  0  0  0  0  0  0  0  0
   -1.9157   -3.2077    2.1702 H   0  0  0  0  0  0  0  0  0  0  0  0
   -3.5930    0.5943    4.2329 H   0  0  0  0  0  0  0  0  0  0  0  0
   -4.4372    2.5981    5.3959 H   0  0  0  0  0  0  0  0  0  0  0  0
   -5.2848    4.6073    6.5577 H   0  0  0  0  0  0  0  0  0  0  0  0
   -6.7156    6.6121    6.5744 H   0  0  0  0  0  0  0  0  0  0  0  0
   -8.1186    7.1614    4.6036 H   0  0  0  0  0  0  0  0  0  0  0  0
   -8.0900    5.7054    2.6169 H   0  0  0  0  0  0  0  0  0  0  0  0
   -7.2438    3.6972    1.4537 H   0  0  0  0  0  0  0  0  0  0  0  0
   -6.3932    1.6924    0.3028 H   0  0  0  0  0  0  0  0  0  0  0  0
   -5.5173   -0.3332   -0.8227 H   0  0  0  0  0  0  0  0  0  0  0  0
   -4.6051   -2.3788   -1.9000 H   0  0  0  0  0  0  0  0  0  0  0  0
   -1.0128   -2.8732   -2.2665 H   0  0  0  0  0  0  0  0  0  0  0  0
    0.9901   -1.9031   -3.1962 H   0  0  0  0  0  0  0  0  0  0  0  0
    1.7909    0.8145   -4.8323 H   0  0  0  0  0  0  0  0  0  0  0  0
    1.9842    2.4822   -3.0274 H   0  0  0  0  0  0  0  0  0  0  0  0
    3.6910    3.9593    1.0240 H   0  0  0  0  0  0  0  0  0  0  0  0
    4.5537    4.8162    3.1683 H   0  0  0  0  0  0  0  0  0  0  0  0
    5.4201    5.6722    5.3183 H   0  0  0  0  0  0  0  0  0  0  0  0
    6.8466    5.3832    7.3053 H   0  0  0  0  0  0  0  0  0  0  0  0
  1  2  4  0
  2  3  4  0
  3  4  4  0
  4  5  4  0
  5  6  4  0
  6  7  4  0
  7  8  4  0
  8  9  4  0
  9 10  4  0
 10 11  4  0
 11 12  1  0
 12 13  4  0
 13 14  4  0
 14 15  4  0
 15 16  4  0
 16 17  4  0
 17 18  4  0
 18 19  4  0
 19 20  4  0
 20 21  4  0
 21 22  4  0
 22 23  4  0
 23 24  4  0
 24 25  1  0
 25 26  4  0
 26 27  4  0
 27 28  4  0
 28 29  4  0
 29 30  4  0
 30 31  4  0
 31 32  4  0
 32 33  4  0
 33 34  4  0
 34 35  4  0
 35 36  4  0
 36 37  4  0
 37 38  4  0
 38 39  4  0
 39 40  4  0
 40 41  4  0
 41 42  4  0
 42 43  4  0
 43 44  4  0
 44 45  4  0
 45 46  4  0
 24 47  4  0
 47 48  4  0
 48 49  4  0
 49 50  4  0
 50 51  4  0
 11 52  4  0
 52 53  4  0
 53 54  4  0
 54 55  4  0
 55 56  4  0
 56 57  4  0
 57 58  4  0
 58 59  4  0
 59 60  4  0
 60 61  4  0
 61 62  4  0
 62  1  4  0
 60  3  4  0
 58  5  4  0
 56  7  4  0
 54  9  4  0
 51 12  4  0
 51 16  4  0
 49 18  4  0
 47 20  4  0
 46 25  4  0
 45 28  4  0
 43 30  4  0
 41 32  4  0
 39 34  4  0
  1 63  1  0
  2 64  1  0
  4 65  1  0
  6 66  1  0
  8 67  1  0
 10 68  1  0
 13 69  1  0
 14 70  1  0
 15 71  1  0
 17 72  1  0
 19 73  1  0
 21 74  1  0
 22 75  1  0
 23 76  1  0
 26 77  1  0
 27 78  1  0
 31 79  1  0
 33 80  1  0
 35 81  1  0
 36 82  1  0
 37 83  1  0
 38 84  1  0
 40 85  1  0
 42 86  1  0
 44 87  1  0
 46 88  1  0
 48 89  1  0
 50 90  1  0
 52 91  1  0
 53 92  1  0
 57 93  1  0
 59 94  1  0
 61 95  1  0
 62 96  1  0
M  END
