
     RDKit          3D

 96109  0  0  0  0  0  0  0  0999 V2000
  -11.8485    1.7177    2.2613 C   0  0  0  0  0  0  0  0  0  0  0  0
  -10.8097    1.7087    1.3296 C   0  0  0  0  0  0  0  0  0  0  0  0
   -9.7273    0.8249    1.4696 C   0  0  0  0  0  0  0  0  0  0  0  0
   -8.6746    0.8035    0.5403 C   0  0  0  0  0  0  0  0  0  0  0  0
   -7.5934   -0.0820    0.6823 C   0  0  0  0  0  0  0  0  0  0  0  0
   -6.5397   -0.1098   -0.2419 C   0  0  0  0  0  0  0  0  0  0  0  0
   -5.4658   -1.0039   -0.0852 C   0  0  0  0  0  0  0  0  0  0  0  0
   -4.4047   -1.0529   -0.9966 C   0  0  0  0  0  0  0  0  0  0  0  0
   -3.3392   -1.9587   -0.8252 C   0  0  0  0  0  0  0  0  0  0  0  0
   -2.2349   -2.0690   -1.7222 C   0  0  0  0  0  0  0  0  0  0  0  0
   -2.1329   -1.2595   -2.9551 C   0  0  0  0  0  0  0  0  0  0  0  0
   -2.8581   -1.6864   -4.0849 C   0  0  0  0  0  0  0  0  0  0  0  0
   -2.8081   -0.9760   -5.2784 C   0  0  0  0  0  0  0  0  0  0  0  0
   -2.0265    0.1716   -5.3641 C   0  0  0  0  0  0  0  0  0  0  0  0
   -1.2846    0.6251   -4.2628 C   0  0  0  0  0  0  0  0  0  0  0  0
   -0.4966    1.7824   -4.3763 C   0  0  0  0  0  0  0  0  0  0  0  0
    0.2657    2.2648   -3.3013 C   0  0  0  0  0  0  0  0  0  0  0  0
    1.0585    3.4166   -3.4223 C   0  0  0  0  0  0  0  0  0  0  0  0
    1.8297    3.8984   -2.3516 C   0  0  0  0  0  0  0  0  0  0  0  0
    2.6134    5.0513   -2.5131 C   0  0  0  0  0  0  0  0  0  0  0  0
    3.3879    5.5444   -1.4675 C   0  0  0  0  0  0  0  0  0  0  0  0
    3.3899    4.8865   -0.2432 C   0  0  0  0  0  0  0  0  0  0  0  0
    2.6185    3.7254   -0.0437 C   0  0  0  0  0  0  0  0  0  0  0  0
    2.6797    3.0737    1.2809 C   0  0  0  0  0  0  0  0  0  0  0  0
    3.6189    2.0425    1.5805 C   0  0  0  0  0  0  0  0  0  0  0  0
    4.5492    1.5328    0.6530 C   0  0  0  0  0  0  0  0  0  0  0  0
    5.4447    0.5183    1.0104 C   0  0  0  0  0  0  0  0  0  0  0  0
    6.3780   -0.0063    0.0981 C   0  0  0  0  0  0  0  0  0  0  0  0
    7.2658   -1.0222    0.4800 C   0  0  0  0  0  0  0  0  0  0  0  0
    8.2043   -1.5584   -0.4180 C   0  0  0  0  0  0  0  0  0  0  0  0
    9.0906   -2.5760   -0.0277 C   0  0  0  0  0  0  0  0  0  0  0  0
   10.0298   -3.1142   -0.9233 C   0  0  0  0  0  0  0  0  0  0  0  0
   10.9036   -4.1250   -0.5198 C   0  0  0  0  0  0  0  0  0  0  0  0
   10.8499   -4.6105    0.7830 C   0  0  0  0  0  0  0  0  0  0  0  0
    9.9223   -4.0861    1.6845 C   0  0  0  0  0  0  0  0  0  0  0  0
    9.0362   -3.0687    1.2936 C   0  0  0  0  0  0  0  0  0  0  0  0
    8.0969   -2.5310    2.1891 C   0  0  0  0  0  0  0  0  0  0  0  0
    7.2107   -1.5135    1.7975 C   0  0  0  0  0  0  0  0  0  0  0  0
    6.2687   -0.9745    2.6919 C   0  0  0  0  0  0  0  0  0  0  0  0
    5.3850    0.0306    2.3232 C   0  0  0  0  0  0  0  0  0  0  0  0
    4.5077    0.5009    3.2251 N   0  0  0  0  0  0  0  0  0  0  0  0
    3.6485    1.4719    2.8696 C   0  0  0  0  0  0  0  0  0  0  0  0
    2.7492    1.9263    3.8225 C   0  0  0  0  0  0  0  0  0  0  0  0
    1.8212    2.9286    3.5436 C   0  0  0  0  0  0  0  0  0  0  0  0
    1.7897    3.5017    2.2791 C   0  0  0  0  0  0  0  0  0  0  0  0
    1.8183    3.2189   -1.1104 C   0  0  0  0  0  0  0  0  0  0  0  0
    1.0070    2.0622   -1.0050 C   0  0  0  0  0  0  0  0  0  0  0  0
    0.2360    1.5788   -2.0790 C   0  0  0  0  0  0  0  0  0  0  0  0
   -0.5606    0.4239   -1.9618 C   0  0  0  0  0  0  0  0  0  0  0  0
   -1.3282   -0.0844   -3.0388 C   0  0  0  0  0  0  0  0  0  0  0  0
   -1.2181   -2.9975   -1.4451 C   0  0  0  0  0  0  0  0  0  0  0  0
   -1.2833   -3.7973   -0.3118 C   0  0  0  0  0  0  0  0  0  0  0  0
   -2.3742   -3.6843    0.5487 C   0  0  0  0  0  0  0  0  0  0  0  0
   -3.4050   -2.7868    0.3145 C   0  0  0  0  0  0  0  0  0  0  0  0
   -4.4205   -2.7503    1.1947 N   0  0  0  0  0  0  0  0  0  0  0  0
   -5.4294   -1.8847    1.0049 C   0  0  0  0  0  0  0  0  0  0  0  0
   -6.4771   -1.8494    1.9146 C   0  0  0  0  0  0  0  0  0  0  0  0
   -7.5621   -0.9656    1.7772 C   0  0  0  0  0  0  0  0  0  0  0  0
   -8.6143   -0.9449    2.7077 C   0  0  0  0  0  0  0  0  0  0  0  0
   -9.6968   -0.0611    2.5679 C   0  0  0  0  0  0  0  0  0  0  0  0
  -10.7496   -0.0398    3.4972 C   0  0  0  0  0  0  0  0  0  0  0  0
  -11.8185    0.8443    3.3440 C   0  0  0  0  0  0  0  0  0  0  0  0
  -12.6800    2.4068    2.1406 H   0  0  0  0  0  0  0  0  0  0  0  0
  -10.8513    2.3992    0.4902 H   0  0  0  0  0  0  0  0  0  0  0  0
   -8.6981    1.4871   -0.3064 H   0  0  0  0  0  0  0  0  0  0  0  0
   -6.5521    0.5688   -1.0928 H   0  0  0  0  0  0  0  0  0  0  0  0
   -4.4080   -0.3737   -1.8466 H   0  0  0  0  0  0  0  0  0  0  0  0
   -3.4708   -2.5852   -4.0303 H   0  0  0  0  0  0  0  0  0  0  0  0
   -3.3743   -1.3174   -6.1410 H   0  0  0  0  0  0  0  0  0  0  0  0
   -1.9979    0.7130   -6.3077 H   0  0  0  0  0  0  0  0  0  0  0  0
   -0.4714    2.3181   -5.3242 H   0  0  0  0  0  0  0  0  0  0  0  0
    1.0776    3.9476   -4.3728 H   0  0  0  0  0  0  0  0  0  0  0  0
    2.6262    5.5792   -3.4647 H   0  0  0  0  0  0  0  0  0  0  0  0
    3.9890    6.4390   -1.6073 H   0  0  0  0  0  0  0  0  0  0  0  0
    4.0024    5.2790    0.5672 H   0  0  0  0  0  0  0  0  0  0  0  0
    4.5736    1.9240   -0.3621 H   0  0  0  0  0  0  0  0  0  0  0  0
    6.4100    0.3822   -0.9182 H   0  0  0  0  0  0  0  0  0  0  0  0
    8.2461   -1.1784   -1.4372 H   0  0  0  0  0  0  0  0  0  0  0  0
   10.0871   -2.7480   -1.9459 H   0  0  0  0  0  0  0  0  0  0  0  0
   11.6252   -4.5322   -1.2232 H   0  0  0  0  0  0  0  0  0  0  0  0
   11.5294   -5.3975    1.0995 H   0  0  0  0  0  0  0  0  0  0  0  0
    9.8959   -4.4790    2.6985 H   0  0  0  0  0  0  0  0  0  0  0  0
    8.0544   -2.9109    3.2085 H   0  0  0  0  0  0  0  0  0  0  0  0
    6.2153   -1.3470    3.7130 H   0  0  0  0  0  0  0  0  0  0  0  0
    2.7728    1.4838    4.8163 H   0  0  0  0  0  0  0  0  0  0  0  0
    1.1270    3.2578    4.3123 H   0  0  0  0  0  0  0  0  0  0  0  0
    1.0653    4.2861    2.0662 H   0  0  0  0  0  0  0  0  0  0  0  0
    0.9745    1.5169   -0.0624 H   0  0  0  0  0  0  0  0  0  0  0  0
   -0.5775   -0.0933   -1.0032 H   0  0  0  0  0  0  0  0  0  0  0  0
   -0.3690   -3.0963   -2.1196 H   0  0  0  0  0  0  0  0  0  0  0  0
   -0.4906   -4.5090   -0.0968 H   0  0  0  0  0  0  0  0  0  0  0  0
   -2.4229   -4.3175    1.4321 H   0  0  0  0  0  0  0  0  0  0  0  0
   -6.4404   -2.5366    2.7576 H   0  0  0  0  0  0  0  0  0  0  0  0
   -8.5902   -1.6283    3.5549 H   0  0  0  0  0  0  0  0  0  0  0  0
  -10.7446   -0.7144    4.3505 H   0  0  0  0  0  0  0  0  0  0  0  0
  -12.6263    0.8497    4.0709 H   0  0  0  0  0  0  0  0  0  0  0  0
  1  2  4  0
  2  3  4  0
  3  4  4  0
  4  5  4  0
  5  6  4  0
  6  7  4  0
  7  8  4  0
  8  9  4  0
  9 10  4  0
 10 11  1  0
 11 12  4  0
 12 13  4  0
 13 14  4  0
 14 15  4  0
 15 16  4  0
 16 17  4  0
 17 18  4  0
 18 19  4  0
 19 20  4  0
 20 21  4  0
 21 22  4  0
 22 23  4  0
 23 24  1  0
 24 25  4  0
 25 26  4  0
 26 27  4  0
 27 28  4  0
 28 29  4  0
 29 30  4  0
 30 31  4  0
 31 32  4  0
 32 33  4  0
 33 34  4  0
 34 35  4  0
 35 36  4  0
 36 37  4  0
 37 38  4  0
 38 39  4  0
 39 40  4  0
 40 41  4  0
 41 42  4  0
 42 43  4  0
 43 44  4  0
 44 45  4  0
 23 46  4  0
 46 47  4  0
 47 48  4  0
 48 49  4  0
 49 50  4  0
 10 51  4  0
 51 52  4  0
 52 53  4  0
 53 54  4  0
 54 55  4  0
 55 56  4  0
 56 57  4  0
 57 58  4  0
 58 59  4  0
 59 60  4  0
 60 61  4  0
 61 62  4  0
 62  1  4  0
 60  3  4  0
 58  5  4  0
 56  7  4  0
 54  9  4  0
 50 11  4  0
 50 15  4  0
 48 17  4  0
 46 19  4  0
 45 24  4  0
 42 25  4  0
 40 27  4  0
 38 29  4  0
 36 31  4  0
  1 63  1  0
  2 64  1  0
  4 65  1  0
  6 66  1  0
  8 67  1  0
 12 68  1  0
 13 69  1  0
 14 70  1  0
 16 71  1  0
 18 72  1  0
 20 73  1  0
 21 74  1  0
 22 75  1  0
 26 76  1  0
 28 77  1  0
 30 78  1  0
 32 79  1  0
 33 80  1  0
 34 81  1  0
 35 82  1  0
 37 83  1  0
 39 84  1  0
 43 85  1  0
 44 86  1  0
 45 87  1  0
 47 88  1  0
 49 89  1  0
 51 90  1  0
 52 91  1  0
 53 92  1  0
 57 93  1  0
 59 94  1  0
 61 95  1  0
 62 96  1  0
M  END
