
     RDKit          3D

 96109  0  0  0  0  0  0  0  0999 V2000
    4.1176    3.3477    7.7587 C   0  0  0  0  0  0  0  0  0  0  0  0
    3.2361    4.4224    7.7652 C   0  0  0  0  0  0  0  0  0  0  0  0
    2.6380    4.8390    6.5719 C   0  0  0  0  0  0  0  0  0  0  0  0
    2.8982    4.2066    5.3634 C   0  0  0  0  0  0  0  0  0  0  0  0
    2.2965    4.6474    4.2448 N   0  0  0  0  0  0  0  0  0  0  0  0
    2.5504    4.0330    3.0763 C   0  0  0  0  0  0  0  0  0  0  0  0
    1.9290    4.4885    1.9221 C   0  0  0  0  0  0  0  0  0  0  0  0
    2.1477    3.8955    0.6660 C   0  0  0  0  0  0  0  0  0  0  0  0
    1.5092    4.3711   -0.4913 C   0  0  0  0  0  0  0  0  0  0  0  0
    1.7281    3.7760   -1.7442 C   0  0  0  0  0  0  0  0  0  0  0  0
    1.0882    4.2486   -2.8996 C   0  0  0  0  0  0  0  0  0  0  0  0
    1.3090    3.6401   -4.1374 C   0  0  0  0  0  0  0  0  0  0  0  0
    2.1742    2.5456   -4.2494 C   0  0  0  0  0  0  0  0  0  0  0  0
    2.3963    1.8928   -5.5488 C   0  0  0  0  0  0  0  0  0  0  0  0
    3.3787    2.4276   -6.4018 C   0  0  0  0  0  0  0  0  0  0  0  0
    3.6407    1.8515   -7.6400 C   0  0  0  0  0  0  0  0  0  0  0  0
    2.9238    0.7296   -8.0452 C   0  0  0  0  0  0  0  0  0  0  0  0
    1.9353    0.1684   -7.2222 C   0  0  0  0  0  0  0  0  0  0  0  0
    1.2209   -0.9643   -7.6482 C   0  0  0  0  0  0  0  0  0  0  0  0
    0.2248   -1.5513   -6.8516 C   0  0  0  0  0  0  0  0  0  0  0  0
   -0.4879   -2.6826   -7.2781 C   0  0  0  0  0  0  0  0  0  0  0  0
   -1.4845   -3.2712   -6.4814 C   0  0  0  0  0  0  0  0  0  0  0  0
   -2.1764   -4.4008   -6.9432 C   0  0  0  0  0  0  0  0  0  0  0  0
   -3.1669   -4.9987   -6.1705 C   0  0  0  0  0  0  0  0  0  0  0  0
   -3.4775   -4.4732   -4.9211 C   0  0  0  0  0  0  0  0  0  0  0  0
   -2.8050   -3.3421   -4.4225 C   0  0  0  0  0  0  0  0  0  0  0  0
   -3.1833   -2.8469   -3.0891 C   0  0  0  0  0  0  0  0  0  0  0  0
   -2.4784   -3.2566   -1.9460 C   0  0  0  0  0  0  0  0  0  0  0  0
   -2.8390   -2.8085   -0.6631 C   0  0  0  0  0  0  0  0  0  0  0  0
   -2.1376   -3.2214    0.4819 C   0  0  0  0  0  0  0  0  0  0  0  0
   -2.5042   -2.7780    1.7640 C   0  0  0  0  0  0  0  0  0  0  0  0
   -1.8118   -3.1908    2.9116 C   0  0  0  0  0  0  0  0  0  0  0  0
   -2.1947   -2.7406    4.1879 C   0  0  0  0  0  0  0  0  0  0  0  0
   -1.5202   -3.1424    5.3464 C   0  0  0  0  0  0  0  0  0  0  0  0
   -1.9326   -2.6735    6.5983 C   0  0  0  0  0  0  0  0  0  0  0  0
   -1.2824   -3.0548    7.7860 C   0  0  0  0  0  0  0  0  0  0  0  0
   -1.7205   -2.5677    9.0155 C   0  0  0  0  0  0  0  0  0  0  0  0
   -2.8061   -1.7010    9.0623 C   0  0  0  0  0  0  0  0  0  0  0  0
   -3.4484   -1.3261    7.8784 C   0  0  0  0  0  0  0  0  0  0  0  0
   -3.0328   -1.7966    6.6397 C   0  0  0  0  0  0  0  0  0  0  0  0
   -3.6861   -1.4049    5.5317 N   0  0  0  0  0  0  0  0  0  0  0  0
   -3.2822   -1.8626    4.3338 C   0  0  0  0  0  0  0  0  0  0  0  0
   -3.9584   -1.4593    3.1908 C   0  0  0  0  0  0  0  0  0  0  0  0
   -3.5940   -1.8992    1.9056 C   0  0  0  0  0  0  0  0  0  0  0  0
   -4.2940   -1.4829    0.7607 C   0  0  0  0  0  0  0  0  0  0  0  0
   -3.9313   -1.9280   -0.5211 C   0  0  0  0  0  0  0  0  0  0  0  0
   -4.6344   -1.5173   -1.6635 C   0  0  0  0  0  0  0  0  0  0  0  0
   -4.2652   -1.9727   -2.9316 C   0  0  0  0  0  0  0  0  0  0  0  0
   -1.7914   -2.7242   -5.2122 C   0  0  0  0  0  0  0  0  0  0  0  0
   -1.0649   -1.5810   -4.8008 C   0  0  0  0  0  0  0  0  0  0  0  0
   -0.0668   -0.9930   -5.5991 C   0  0  0  0  0  0  0  0  0  0  0  0
    0.6467    0.1414   -5.1729 C   0  0  0  0  0  0  0  0  0  0  0  0
    1.6569    0.7451   -5.9604 C   0  0  0  0  0  0  0  0  0  0  0  0
    2.8222    2.0784   -3.0952 C   0  0  0  0  0  0  0  0  0  0  0  0
    2.6075    2.6779   -1.8426 C   0  0  0  0  0  0  0  0  0  0  0  0
    3.2467    2.2039   -0.6855 C   0  0  0  0  0  0  0  0  0  0  0  0
    3.0258    2.8003    0.5670 C   0  0  0  0  0  0  0  0  0  0  0  0
    3.6590    2.3307    1.7263 C   0  0  0  0  0  0  0  0  0  0  0  0
    3.4265    2.9391    2.9725 C   0  0  0  0  0  0  0  0  0  0  0  0
    4.0484    2.4873    4.1416 C   0  0  0  0  0  0  0  0  0  0  0  0
    3.7916    3.1189    5.3630 C   0  0  0  0  0  0  0  0  0  0  0  0
    4.3966    2.6950    6.5599 C   0  0  0  0  0  0  0  0  0  0  0  0
    4.5859    3.0188    8.6827 H   0  0  0  0  0  0  0  0  0  0  0  0
    3.0099    4.9403    8.6936 H   0  0  0  0  0  0  0  0  0  0  0  0
    1.9494    5.6805    6.5841 H   0  0  0  0  0  0  0  0  0  0  0  0
    1.2521    5.3359    2.0118 H   0  0  0  0  0  0  0  0  0  0  0  0
    0.8289    5.2179   -0.4153 H   0  0  0  0  0  0  0  0  0  0  0  0
    0.4048    5.0933   -2.8453 H   0  0  0  0  0  0  0  0  0  0  0  0
    0.7922    4.0191   -5.0168 H   0  0  0  0  0  0  0  0  0  0  0  0
    3.9471    3.3036   -6.0938 H   0  0  0  0  0  0  0  0  0  0  0  0
    4.4028    2.2754   -8.2887 H   0  0  0  0  0  0  0  0  0  0  0  0
    3.1440    0.2933   -9.0176 H   0  0  0  0  0  0  0  0  0  0  0  0
    1.4441   -1.3994   -8.6210 H   0  0  0  0  0  0  0  0  0  0  0  0
   -0.2614   -3.1136   -8.2521 H   0  0  0  0  0  0  0  0  0  0  0  0
   -1.9471   -4.8270   -7.9178 H   0  0  0  0  0  0  0  0  0  0  0  0
   -3.6950   -5.8731   -6.5410 H   0  0  0  0  0  0  0  0  0  0  0  0
   -4.2527   -4.9510   -4.3245 H   0  0  0  0  0  0  0  0  0  0  0  0
   -1.6369   -3.9379   -2.0639 H   0  0  0  0  0  0  0  0  0  0  0  0
   -1.2939   -3.9006    0.3722 H   0  0  0  0  0  0  0  0  0  0  0  0
   -0.9671   -3.8698    2.8122 H   0  0  0  0  0  0  0  0  0  0  0  0
   -0.6740   -3.8214    5.2743 H   0  0  0  0  0  0  0  0  0  0  0  0
   -0.4327   -3.7330    7.7579 H   0  0  0  0  0  0  0  0  0  0  0  0
   -1.2168   -2.8634    9.9322 H   0  0  0  0  0  0  0  0  0  0  0  0
   -3.1578   -1.3138   10.0151 H   0  0  0  0  0  0  0  0  0  0  0  0
   -4.2974   -0.6478    7.9221 H   0  0  0  0  0  0  0  0  0  0  0  0
   -4.7996   -0.7796    3.3134 H   0  0  0  0  0  0  0  0  0  0  0  0
   -5.1375   -0.8031    0.8701 H   0  0  0  0  0  0  0  0  0  0  0  0
   -5.4801   -0.8386   -1.5759 H   0  0  0  0  0  0  0  0  0  0  0  0
   -4.8284   -1.6401   -3.8013 H   0  0  0  0  0  0  0  0  0  0  0  0
   -1.2801   -1.1322   -3.8316 H   0  0  0  0  0  0  0  0  0  0  0  0
    0.4040    0.5655   -4.1997 H   0  0  0  0  0  0  0  0  0  0  0  0
    3.4966    1.2275   -3.1789 H   0  0  0  0  0  0  0  0  0  0  0  0
    3.9250    1.3558   -0.7618 H   0  0  0  0  0  0  0  0  0  0  0  0
    4.3399    1.4841    1.6615 H   0  0  0  0  0  0  0  0  0  0  0  0
    4.7332    1.6438    4.1017 H   0  0  0  0  0  0  0  0  0  0  0  0
    5.0871    1.8549    6.5624 H   0  0  0  0  0  0  0  0  0  0  0  0
  1  2  4  0
  2  3  4  0
  3  4  4  0
  4  5  4  0
  5  6  4  0
  6  7  4  0
  7  8  4  0
  8  9  4  0
  9 10  4  0
 10 11  4  0
 11 12  4  0
 12 13  4  0
 13 14  1  0
 14 15  4  0
 15 16  4  0
 16 17  4  0
 17 18  4  0
 18 19  4  0
 19 20  4  0
 20 21  4  0
 21 22  4  0
 22 23  4  0
 23 24  4  0
 24 25  4  0
 25 26  4  0
 26 27  1  0
 27 28  4  0
 28 29  4  0
 29 30  4  0
 30 31  4  0
 31 32  4  0
 32 33  4  0
 33 34  4  0
 34 35  4  0
 35 36  4  0
 36 37  4  0
 37 38  4  0
 38 39  4  0
 39 40  4  0
 40 41  4  0
 41 42  4  0
 42 43  4  0
 43 44  4  0
 44 45  4  0
 45 46  4  0
 46 47  4  0
 47 48  4  0
 26 49  4  0
 49 50  4  0
 50 51  4  0
 51 52  4  0
 52 53  4  0
 13 54  4  0
 54 55  4  0
 55 56  4  0
 56 57  4  0
 57 58  4  0
 58 59  4  0
 59 60  4  0
 60 61  4  0
 61 62  4  0
 62  1  4  0
 61  4  4  0
 59  6  4  0
 57  8  4  0
 55 10  4  0
 53 14  4  0
 53 18  4  0
 51 20  4  0
 49 22  4  0
 48 27  4  0
 46 29  4  0
 44 31  4  0
 42 33  4  0
 40 35  4  0
  1 63  1  0
  2 64  1  0
  3 65  1  0
  7 66  1  0
  9 67  1  0
 11 68  1  0
 12 69  1  0
 15 70  1  0
 16 71  1  0
 17 72  1  0
 19 73  1  0
 21 74  1  0
 23 75  1  0
 24 76  1  0
 25 77  1  0
 28 78  1  0
 30 79  1  0
 32 80  1  0
 34 81  1  0
 36 82  1  0
 37 83  1  0
 38 84  1  0
 39 85  1  0
 43 86  1  0
 45 87  1  0
 47 88  1  0
 48 89  1  0
 50 90  1  0
 52 91  1  0
 54 92  1  0
 56 93  1  0
 58 94  1  0
 60 95  1  0
 62 96  1  0
M  END
