
     RDKit          3D

 96109  0  0  0  0  0  0  0  0999 V2000
    1.0124    5.5965    0.8227 C   0  0  0  0  0  0  0  0  0  0  0  0
    0.8794    5.3127   -0.5271 C   0  0  0  0  0  0  0  0  0  0  0  0
    1.5368    4.2057   -1.0616 C   0  0  0  0  0  0  0  0  0  0  0  0
    2.3410    3.3600   -0.2539 C   0  0  0  0  0  0  0  0  0  0  0  0
    2.4599    3.6585    1.1154 C   0  0  0  0  0  0  0  0  0  0  0  0
    1.7977    4.7678    1.6256 C   0  0  0  0  0  0  0  0  0  0  0  0
    3.1875    2.9195    1.9627 N   0  0  0  0  0  0  0  0  0  0  0  0
    3.8483    1.8455    1.5120 C   0  0  0  0  0  0  0  0  0  0  0  0
    4.5928    1.1138    2.4275 C   0  0  0  0  0  0  0  0  0  0  0  0
    5.3206   -0.0316    2.0673 C   0  0  0  0  0  0  0  0  0  0  0  0
    6.0691   -0.7577    3.0095 C   0  0  0  0  0  0  0  0  0  0  0  0
    6.7945   -1.9029    2.6416 C   0  0  0  0  0  0  0  0  0  0  0  0
    7.5436   -2.6299    3.5814 C   0  0  0  0  0  0  0  0  0  0  0  0
    8.2594   -3.7657    3.1996 C   0  0  0  0  0  0  0  0  0  0  0  0
    8.2354   -4.1889    1.8743 C   0  0  0  0  0  0  0  0  0  0  0  0
    7.4956   -3.4771    0.9287 C   0  0  0  0  0  0  0  0  0  0  0  0
    6.7699   -2.3322    1.2976 C   0  0  0  0  0  0  0  0  0  0  0  0
    6.0201   -1.6047    0.3588 C   0  0  0  0  0  0  0  0  0  0  0  0
    5.2960   -0.4591    0.7312 C   0  0  0  0  0  0  0  0  0  0  0  0
    4.5444    0.2750   -0.1987 C   0  0  0  0  0  0  0  0  0  0  0  0
    3.8146    1.4349    0.1695 C   0  0  0  0  0  0  0  0  0  0  0  0
    3.0390    2.2162   -0.7347 C   0  0  0  0  0  0  0  0  0  0  0  0
    2.9582    1.8385   -2.1686 C   0  0  0  0  0  0  0  0  0  0  0  0
    3.9021    2.3874   -3.0569 C   0  0  0  0  0  0  0  0  0  0  0  0
    3.8816    2.0632   -4.4088 C   0  0  0  0  0  0  0  0  0  0  0  0
    2.9178    1.1835   -4.8944 C   0  0  0  0  0  0  0  0  0  0  0  0
    1.9605    0.6159   -4.0400 C   0  0  0  0  0  0  0  0  0  0  0  0
    0.9967   -0.2736   -4.5470 C   0  0  0  0  0  0  0  0  0  0  0  0
    0.0254   -0.8597   -3.7190 C   0  0  0  0  0  0  0  0  0  0  0  0
   -0.9383   -1.7519   -4.2186 C   0  0  0  0  0  0  0  0  0  0  0  0
   -1.9071   -2.3363   -3.3835 C   0  0  0  0  0  0  0  0  0  0  0  0
   -2.8558   -3.2259   -3.9111 C   0  0  0  0  0  0  0  0  0  0  0  0
   -3.8206   -3.8128   -3.0961 C   0  0  0  0  0  0  0  0  0  0  0  0
   -3.8507   -3.5176   -1.7374 C   0  0  0  0  0  0  0  0  0  0  0  0
   -2.9163   -2.6301   -1.1723 C   0  0  0  0  0  0  0  0  0  0  0  0
   -2.9961   -2.3500    0.2836 C   0  0  0  0  0  0  0  0  0  0  0  0
   -3.8029   -1.2793    0.7648 C   0  0  0  0  0  0  0  0  0  0  0  0
   -4.5852   -0.4326   -0.0623 C   0  0  0  0  0  0  0  0  0  0  0  0
   -5.3651    0.6085    0.4636 C   0  0  0  0  0  0  0  0  0  0  0  0
   -6.1401    1.4413   -0.3612 C   0  0  0  0  0  0  0  0  0  0  0  0
   -6.9186    2.4797    0.1751 C   0  0  0  0  0  0  0  0  0  0  0  0
   -7.6945    3.3129   -0.6471 C   0  0  0  0  0  0  0  0  0  0  0  0
   -8.4637    4.3401   -0.0987 C   0  0  0  0  0  0  0  0  0  0  0  0
   -8.4663    4.5476    1.2772 C   0  0  0  0  0  0  0  0  0  0  0  0
   -7.7001    3.7284    2.1075 C   0  0  0  0  0  0  0  0  0  0  0  0
   -6.9211    2.6901    1.5707 C   0  0  0  0  0  0  0  0  0  0  0  0
   -6.1441    1.8563    2.3914 C   0  0  0  0  0  0  0  0  0  0  0  0
   -5.3662    0.8178    1.8511 C   0  0  0  0  0  0  0  0  0  0  0  0
   -4.5852   -0.0188    2.6643 C   0  0  0  0  0  0  0  0  0  0  0  0
   -3.8113   -1.0504    2.1503 C   0  0  0  0  0  0  0  0  0  0  0  0
   -3.0965   -1.7820    3.0142 N   0  0  0  0  0  0  0  0  0  0  0  0
   -2.3442   -2.7951    2.5665 C   0  0  0  0  0  0  0  0  0  0  0  0
   -1.6276   -3.5324    3.5002 C   0  0  0  0  0  0  0  0  0  0  0  0
   -0.8135   -4.6046    3.1318 C   0  0  0  0  0  0  0  0  0  0  0  0
   -0.7080   -4.9538    1.7948 C   0  0  0  0  0  0  0  0  0  0  0  0
   -1.4187   -4.2283    0.8400 C   0  0  0  0  0  0  0  0  0  0  0  0
   -2.2498   -3.1371    1.2058 C   0  0  0  0  0  0  0  0  0  0  0  0
   -1.9267   -2.0270   -2.0033 C   0  0  0  0  0  0  0  0  0  0  0  0
   -0.9504   -1.1259   -1.5189 C   0  0  0  0  0  0  0  0  0  0  0  0
    0.0183   -0.5451   -2.3531 C   0  0  0  0  0  0  0  0  0  0  0  0
    0.9806    0.3433   -1.8449 C   0  0  0  0  0  0  0  0  0  0  0  0
    1.9677    0.9396   -2.6628 C   0  0  0  0  0  0  0  0  0  0  0  0
    0.5092    6.4558    1.2573 H   0  0  0  0  0  0  0  0  0  0  0  0
    0.2653    5.9435   -1.1641 H   0  0  0  0  0  0  0  0  0  0  0  0
    1.4118    4.0020   -2.1234 H   0  0  0  0  0  0  0  0  0  0  0  0
    1.8962    4.9936    2.6853 H   0  0  0  0  0  0  0  0  0  0  0  0
    4.6019    1.4549    3.4614 H   0  0  0  0  0  0  0  0  0  0  0  0
    6.0872   -0.4257    4.0463 H   0  0  0  0  0  0  0  0  0  0  0  0
    7.5743   -2.3147    4.6220 H   0  0  0  0  0  0  0  0  0  0  0  0
    8.8345   -4.3186    3.9377 H   0  0  0  0  0  0  0  0  0  0  0  0
    8.7917   -5.0731    1.5747 H   0  0  0  0  0  0  0  0  0  0  0  0
    7.4887   -3.8238   -0.1022 H   0  0  0  0  0  0  0  0  0  0  0  0
    6.0004   -1.9348   -0.6785 H   0  0  0  0  0  0  0  0  0  0  0  0
    4.5236   -0.0671   -1.2322 H   0  0  0  0  0  0  0  0  0  0  0  0
    4.6620    3.0743   -2.6873 H   0  0  0  0  0  0  0  0  0  0  0  0
    4.6167    2.4939   -5.0838 H   0  0  0  0  0  0  0  0  0  0  0  0
    2.9205    0.9419   -5.9556 H   0  0  0  0  0  0  0  0  0  0  0  0
    1.0030   -0.5166   -5.6082 H   0  0  0  0  0  0  0  0  0  0  0  0
   -0.9322   -1.9966   -5.2796 H   0  0  0  0  0  0  0  0  0  0  0  0
   -2.8505   -3.4708   -4.9716 H   0  0  0  0  0  0  0  0  0  0  0  0
   -4.5489   -4.4990   -3.5204 H   0  0  0  0  0  0  0  0  0  0  0  0
   -4.6095   -3.9822   -1.1096 H   0  0  0  0  0  0  0  0  0  0  0  0
   -4.5859   -0.5856   -1.1404 H   0  0  0  0  0  0  0  0  0  0  0  0
   -6.1363    1.2790   -1.4378 H   0  0  0  0  0  0  0  0  0  0  0  0
   -7.7050    3.1662   -1.7249 H   0  0  0  0  0  0  0  0  0  0  0  0
   -9.0609    4.9768   -0.7462 H   0  0  0  0  0  0  0  0  0  0  0  0
   -9.0645    5.3469    1.7064 H   0  0  0  0  0  0  0  0  0  0  0  0
   -7.7159    3.9068    3.1805 H   0  0  0  0  0  0  0  0  0  0  0  0
   -6.1442    2.0179    3.4681 H   0  0  0  0  0  0  0  0  0  0  0  0
   -4.5739    0.1351    3.7420 H   0  0  0  0  0  0  0  0  0  0  0  0
   -1.7051   -3.2611    4.5509 H   0  0  0  0  0  0  0  0  0  0  0  0
   -0.2655   -5.1567    3.8904 H   0  0  0  0  0  0  0  0  0  0  0  0
   -0.0738   -5.7824    1.4912 H   0  0  0  0  0  0  0  0  0  0  0  0
   -1.3151   -4.5203   -0.2033 H   0  0  0  0  0  0  0  0  0  0  0  0
   -0.9382   -0.8653   -0.4610 H   0  0  0  0  0  0  0  0  0  0  0  0
    0.9561    0.5724   -0.7799 H   0  0  0  0  0  0  0  0  0  0  0  0
  1  2  4  0
  2  3  4  0
  3  4  4  0
  4  5  4  0
  5  6  4  0
  5  7  4  0
  7  8  4  0
  8  9  4  0
  9 10  4  0
 10 11  4  0
 11 12  4  0
 12 13  4  0
 13 14  4  0
 14 15  4  0
 15 16  4  0
 16 17  4  0
 17 18  4  0
 18 19  4  0
 19 20  4  0
 20 21  4  0
 21 22  4  0
 22 23  1  0
 23 24  4  0
 24 25  4  0
 25 26  4  0
 26 27  4  0
 27 28  4  0
 28 29  4  0
 29 30  4  0
 30 31  4  0
 31 32  4  0
 32 33  4  0
 33 34  4  0
 34 35  4  0
 35 36  1  0
 36 37  4  0
 37 38  4  0
 38 39  4  0
 39 40  4  0
 40 41  4  0
 41 42  4  0
 42 43  4  0
 43 44  4  0
 44 45  4  0
 45 46  4  0
 46 47  4  0
 47 48  4  0
 48 49  4  0
 49 50  4  0
 50 51  4  0
 51 52  4  0
 52 53  4  0
 53 54  4  0
 54 55  4  0
 55 56  4  0
 56 57  4  0
 35 58  4  0
 58 59  4  0
 59 60  4  0
 60 61  4  0
 61 62  4  0
  6  1  4  0
 21  8  4  0
 62 23  4  0
 22  4  4  0
 62 27  4  0
 19 10  4  0
 60 29  4  0
 17 12  4  0
 58 31  4  0
 57 36  4  0
 50 37  4  0
 57 52  4  0
 48 39  4  0
 46 41  4  0
  1 63  1  0
  2 64  1  0
  3 65  1  0
  6 66  1  0
  9 67  1  0
 11 68  1  0
 13 69  1  0
 14 70  1  0
 15 71  1  0
 16 72  1  0
 18 73  1  0
 20 74  1  0
 24 75  1  0
 25 76  1  0
 26 77  1  0
 28 78  1  0
 30 79  1  0
 32 80  1  0
 33 81  1  0
 34 82  1  0
 38 83  1  0
 40 84  1  0
 42 85  1  0
 43 86  1  0
 44 87  1  0
 45 88  1  0
 47 89  1  0
 49 90  1  0
 53 91  1  0
 54 92  1  0
 55 93  1  0
 56 94  1  0
 59 95  1  0
 61 96  1  0
M  END
