
     RDKit          3D

 86 99  0  0  0  0  0  0  0  0999 V2000
   -8.5840   -2.7380   -2.8277 C   0  0  0  0  0  0  0  0  0  0  0  0
   -7.8971   -1.5538   -2.6975 C   0  0  0  0  0  0  0  0  0  0  0  0
   -7.0431   -1.5282   -1.5441 C   0  0  0  0  0  0  0  0  0  0  0  0
   -6.1821   -0.5155   -1.0574 C   0  0  0  0  0  0  0  0  0  0  0  0
   -5.4230   -0.7050    0.1120 C   0  0  0  0  0  0  0  0  0  0  0  0
   -5.5154   -1.9169    0.8092 C   0  0  0  0  0  0  0  0  0  0  0  0
   -4.7472   -2.0921    1.9701 C   0  0  0  0  0  0  0  0  0  0  0  0
   -3.8897   -1.0880    2.4522 C   0  0  0  0  0  0  0  0  0  0  0  0
   -3.1369   -1.3144    3.6125 C   0  0  0  0  0  0  0  0  0  0  0  0
   -2.2726   -0.3158    4.0950 C   0  0  0  0  0  0  0  0  0  0  0  0
   -1.2679   -0.4208    5.4926 S   0  0  0  0  0  0  0  0  0  0  0  0
   -0.6499    1.1475    5.2589 C   0  0  0  0  0  0  0  0  0  0  0  0
   -1.1922    1.7496    4.1491 C   0  0  0  0  0  0  0  0  0  0  0  0
   -2.1418    0.9150    3.4528 C   0  0  0  0  0  0  0  0  0  0  0  0
   -2.9137    1.1477    2.2732 C   0  0  0  0  0  0  0  0  0  0  0  0
   -2.7649    2.4642    1.6176 C   0  0  0  0  0  0  0  0  0  0  0  0
   -3.6296    3.5031    2.0116 C   0  0  0  0  0  0  0  0  0  0  0  0
   -3.5400    4.7648    1.4348 C   0  0  0  0  0  0  0  0  0  0  0  0
   -2.5829    5.0085    0.4541 C   0  0  0  0  0  0  0  0  0  0  0  0
   -1.7036    3.9982    0.0348 C   0  0  0  0  0  0  0  0  0  0  0  0
   -0.7439    4.2636   -0.9570 C   0  0  0  0  0  0  0  0  0  0  0  0
    0.1521    3.2775   -1.3998 C   0  0  0  0  0  0  0  0  0  0  0  0
    1.1114    3.5431   -2.3899 C   0  0  0  0  0  0  0  0  0  0  0  0
    2.0075    2.5558   -2.8340 C   0  0  0  0  0  0  0  0  0  0  0  0
    2.9529    2.8567   -3.8267 C   0  0  0  0  0  0  0  0  0  0  0  0
    3.8479    1.8922   -4.2801 C   0  0  0  0  0  0  0  0  0  0  0  0
    3.8089    0.6099   -3.7447 C   0  0  0  0  0  0  0  0  0  0  0  0
    2.8753    0.2701   -2.7471 C   0  0  0  0  0  0  0  0  0  0  0  0
    2.8875   -1.1127   -2.2245 C   0  0  0  0  0  0  0  0  0  0  0  0
    2.0452   -2.0643   -2.8776 C   0  0  0  0  0  0  0  0  0  0  0  0
    1.1338   -1.9250   -3.9880 C   0  0  0  0  0  0  0  0  0  0  0  0
    0.4973   -3.0968   -4.3199 C   0  0  0  0  0  0  0  0  0  0  0  0
    0.9766   -4.3831   -3.3142 S   0  0  0  0  0  0  0  0  0  0  0  0
    2.0486   -3.3784   -2.4114 C   0  0  0  0  0  0  0  0  0  0  0  0
    2.8528   -3.7778   -1.3294 C   0  0  0  0  0  0  0  0  0  0  0  0
    3.6776   -2.8440   -0.6878 C   0  0  0  0  0  0  0  0  0  0  0  0
    4.4799   -3.2492    0.3930 C   0  0  0  0  0  0  0  0  0  0  0  0
    5.3209   -2.3528    1.0693 C   0  0  0  0  0  0  0  0  0  0  0  0
    5.3573   -1.0145    0.6558 C   0  0  0  0  0  0  0  0  0  0  0  0
    6.1932   -0.1023    1.3258 C   0  0  0  0  0  0  0  0  0  0  0  0
    7.0031   -0.5119    2.4122 C   0  0  0  0  0  0  0  0  0  0  0  0
    7.9174    0.2341    3.2294 C   0  0  0  0  0  0  0  0  0  0  0  0
    8.5209   -0.5360    4.1956 C   0  0  0  0  0  0  0  0  0  0  0  0
    8.0003   -2.1583    4.1349 S   0  0  0  0  0  0  0  0  0  0  0  0
    6.9500   -1.8498    2.8033 C   0  0  0  0  0  0  0  0  0  0  0  0
    6.1183   -2.7771    2.1458 C   0  0  0  0  0  0  0  0  0  0  0  0
    4.5543   -0.6111   -0.4251 C   0  0  0  0  0  0  0  0  0  0  0  0
    3.7057   -1.5057   -1.1206 C   0  0  0  0  0  0  0  0  0  0  0  0
    1.9565    1.2551   -2.2793 C   0  0  0  0  0  0  0  0  0  0  0  0
    0.9844    1.0062   -1.2810 C   0  0  0  0  0  0  0  0  0  0  0  0
    0.0870    1.9944   -0.8389 C   0  0  0  0  0  0  0  0  0  0  0  0
   -0.8739    1.7272    0.1523 C   0  0  0  0  0  0  0  0  0  0  0  0
   -1.7837    2.7091    0.6124 C   0  0  0  0  0  0  0  0  0  0  0  0
   -3.7888    0.1372    1.7682 C   0  0  0  0  0  0  0  0  0  0  0  0
   -4.5684    0.2994    0.5978 C   0  0  0  0  0  0  0  0  0  0  0  0
   -6.3657   -2.9329    0.3409 C   0  0  0  0  0  0  0  0  0  0  0  0
   -7.1193   -2.7245   -0.8308 C   0  0  0  0  0  0  0  0  0  0  0  0
   -8.2141   -3.8305   -1.5722 S   0  0  0  0  0  0  0  0  0  0  0  0
   -9.2865   -3.0144   -3.6018 H   0  0  0  0  0  0  0  0  0  0  0  0
   -7.9966   -0.7334   -3.3976 H   0  0  0  0  0  0  0  0  0  0  0  0
   -6.1126    0.4216   -1.6055 H   0  0  0  0  0  0  0  0  0  0  0  0
   -4.8173   -3.0358    2.5103 H   0  0  0  0  0  0  0  0  0  0  0  0
   -3.2095   -2.2601    4.1448 H   0  0  0  0  0  0  0  0  0  0  0  0
    0.0824    1.5566    5.9412 H   0  0  0  0  0  0  0  0  0  0  0  0
   -0.9193    2.7501    3.8338 H   0  0  0  0  0  0  0  0  0  0  0  0
   -4.3813    3.3226    2.7786 H   0  0  0  0  0  0  0  0  0  0  0  0
   -4.2140    5.5572    1.7493 H   0  0  0  0  0  0  0  0  0  0  0  0
   -2.5274    6.0030    0.0156 H   0  0  0  0  0  0  0  0  0  0  0  0
   -0.6921    5.2592   -1.3947 H   0  0  0  0  0  0  0  0  0  0  0  0
    1.1606    4.5406   -2.8238 H   0  0  0  0  0  0  0  0  0  0  0  0
    2.9988    3.8546   -4.2585 H   0  0  0  0  0  0  0  0  0  0  0  0
    4.5742    2.1397   -5.0498 H   0  0  0  0  0  0  0  0  0  0  0  0
    4.5130   -0.1377   -4.1068 H   0  0  0  0  0  0  0  0  0  0  0  0
    0.9559   -0.9937   -4.5131 H   0  0  0  0  0  0  0  0  0  0  0  0
   -0.2282   -3.2552   -5.1059 H   0  0  0  0  0  0  0  0  0  0  0  0
    2.8246   -4.8130   -0.9973 H   0  0  0  0  0  0  0  0  0  0  0  0
    4.4500   -4.2892    0.7168 H   0  0  0  0  0  0  0  0  0  0  0  0
    6.2253    0.9387    1.0116 H   0  0  0  0  0  0  0  0  0  0  0  0
    8.1177    1.2913    3.1066 H   0  0  0  0  0  0  0  0  0  0  0  0
    9.2441   -0.2228    4.9359 H   0  0  0  0  0  0  0  0  0  0  0  0
    6.1007   -3.8123    2.4768 H   0  0  0  0  0  0  0  0  0  0  0  0
    4.5916    0.4341   -0.7307 H   0  0  0  0  0  0  0  0  0  0  0  0
    0.9211    0.0158   -0.8316 H   0  0  0  0  0  0  0  0  0  0  0  0
   -0.9114    0.7238    0.5748 H   0  0  0  0  0  0  0  0  0  0  0  0
   -4.5053    1.2337    0.0409 H   0  0  0  0  0  0  0  0  0  0  0  0
   -6.4479   -3.8779    0.8715 H   0  0  0  0  0  0  0  0  0  0  0  0
  1  2  4  0
  2  3  4  0
  3  4  4  0
  4  5  4  0
  5  6  4  0
  6  7  4  0
  7  8  4  0
  8  9  4  0
  9 10  4  0
 10 11  4  0
 11 12  4  0
 12 13  4  0
 13 14  4  0
 14 15  4  0
 15 16  1  0
 16 17  4  0
 17 18  4  0
 18 19  4  0
 19 20  4  0
 20 21  4  0
 21 22  4  0
 22 23  4  0
 23 24  4  0
 24 25  4  0
 25 26  4  0
 26 27  4  0
 27 28  4  0
 28 29  1  0
 29 30  4  0
 30 31  4  0
 31 32  4  0
 32 33  4  0
 33 34  4  0
 34 35  4  0
 35 36  4  0
 36 37  4  0
 37 38  4  0
 38 39  4  0
 39 40  4  0
 40 41  4  0
 41 42  4  0
 42 43  4  0
 43 44  4  0
 44 45  4  0
 45 46  4  0
 39 47  4  0
 47 48  4  0
 28 49  4  0
 49 50  4  0
 50 51  4  0
 51 52  4  0
 52 53  4  0
 15 54  4  0
 54 55  4  0
  6 56  4  0
 56 57  4  0
 57 58  4  0
 58  1  4  0
 57  3  4  0
 55  5  4  0
 54  8  4  0
 14 10  4  0
 53 16  4  0
 53 20  4  0
 51 22  4  0
 49 24  4  0
 48 29  4  0
 34 30  4  0
 48 36  4  0
 46 38  4  0
 45 41  4  0
  1 59  1  0
  2 60  1  0
  4 61  1  0
  7 62  1  0
  9 63  1  0
 12 64  1  0
 13 65  1  0
 17 66  1  0
 18 67  1  0
 19 68  1  0
 21 69  1  0
 23 70  1  0
 25 71  1  0
 26 72  1  0
 27 73  1  0
 31 74  1  0
 32 75  1  0
 35 76  1  0
 37 77  1  0
 40 78  1  0
 42 79  1  0
 43 80  1  0
 46 81  1  0
 47 82  1  0
 50 83  1  0
 52 84  1  0
 55 85  1  0
 56 86  1  0
M  END
