
     RDKit          3D

 86 99  0  0  0  0  0  0  0  0999 V2000
   -7.1140   -5.3423   -1.3038 C   0  0  0  0  0  0  0  0  0  0  0  0
   -6.9031   -4.8774   -0.0269 C   0  0  0  0  0  0  0  0  0  0  0  0
   -6.2545   -3.5971    0.0004 C   0  0  0  0  0  0  0  0  0  0  0  0
   -5.8633   -2.7854    1.0923 C   0  0  0  0  0  0  0  0  0  0  0  0
   -5.2277   -1.5467    0.8871 C   0  0  0  0  0  0  0  0  0  0  0  0
   -4.8312   -0.7414    1.9652 C   0  0  0  0  0  0  0  0  0  0  0  0
   -4.1867    0.4931    1.7715 C   0  0  0  0  0  0  0  0  0  0  0  0
   -3.9295    0.9586    0.4692 C   0  0  0  0  0  0  0  0  0  0  0  0
   -4.3438    0.1367   -0.6072 C   0  0  0  0  0  0  0  0  0  0  0  0
   -4.9790   -1.1028   -0.4181 C   0  0  0  0  0  0  0  0  0  0  0  0
   -5.3606   -1.8959   -1.5132 C   0  0  0  0  0  0  0  0  0  0  0  0
   -5.9936   -3.1340   -1.2893 C   0  0  0  0  0  0  0  0  0  0  0  0
   -6.5375   -4.2534   -2.4820 S   0  0  0  0  0  0  0  0  0  0  0  0
   -3.2691    2.2133    0.2843 C   0  0  0  0  0  0  0  0  0  0  0  0
   -2.9831    2.7635   -1.0592 C   0  0  0  0  0  0  0  0  0  0  0  0
   -3.8908    3.6941   -1.6006 C   0  0  0  0  0  0  0  0  0  0  0  0
   -3.6837    4.2470   -2.8590 C   0  0  0  0  0  0  0  0  0  0  0  0
   -2.5667    3.8746   -3.6005 C   0  0  0  0  0  0  0  0  0  0  0  0
   -1.6433    2.9450   -3.0986 C   0  0  0  0  0  0  0  0  0  0  0  0
   -0.5282    2.5736   -3.8688 C   0  0  0  0  0  0  0  0  0  0  0  0
    0.4080    1.6354   -3.4065 C   0  0  0  0  0  0  0  0  0  0  0  0
    1.5143    1.2547   -4.1820 C   0  0  0  0  0  0  0  0  0  0  0  0
    2.4462    0.3079   -3.7241 C   0  0  0  0  0  0  0  0  0  0  0  0
    3.5382   -0.0514   -4.5287 C   0  0  0  0  0  0  0  0  0  0  0  0
    4.4708   -0.9886   -4.0945 C   0  0  0  0  0  0  0  0  0  0  0  0
    4.3225   -1.5802   -2.8454 C   0  0  0  0  0  0  0  0  0  0  0  0
    3.2399   -1.2459   -2.0095 C   0  0  0  0  0  0  0  0  0  0  0  0
    3.1475   -1.9096   -0.6911 C   0  0  0  0  0  0  0  0  0  0  0  0
    2.4502   -3.1473   -0.5860 C   0  0  0  0  0  0  0  0  0  0  0  0
    1.6373   -4.0278   -1.8432 S   0  0  0  0  0  0  0  0  0  0  0  0
    1.1456   -5.2627   -0.7823 C   0  0  0  0  0  0  0  0  0  0  0  0
    1.5874   -5.0422    0.4986 C   0  0  0  0  0  0  0  0  0  0  0  0
    2.3397   -3.8259    0.6296 C   0  0  0  0  0  0  0  0  0  0  0  0
    2.9464   -3.2571    1.7719 C   0  0  0  0  0  0  0  0  0  0  0  0
    3.6352   -2.0370    1.7080 C   0  0  0  0  0  0  0  0  0  0  0  0
    3.7400   -1.3520    0.4839 C   0  0  0  0  0  0  0  0  0  0  0  0
    4.4380   -0.1200    0.4863 C   0  0  0  0  0  0  0  0  0  0  0  0
    5.0168    0.4241    1.6458 C   0  0  0  0  0  0  0  0  0  0  0  0
    5.6972    1.6528    1.6078 C   0  0  0  0  0  0  0  0  0  0  0  0
    6.2680    2.1694    2.7873 C   0  0  0  0  0  0  0  0  0  0  0  0
    7.1393    3.6467    2.9591 S   0  0  0  0  0  0  0  0  0  0  0  0
    7.3917    3.3904    4.6255 C   0  0  0  0  0  0  0  0  0  0  0  0
    6.8304    2.2107    5.0550 C   0  0  0  0  0  0  0  0  0  0  0  0
    6.1741    1.4894    4.0016 C   0  0  0  0  0  0  0  0  0  0  0  0
    5.4829    0.2541    4.0223 C   0  0  0  0  0  0  0  0  0  0  0  0
    4.9065   -0.2771    2.8535 C   0  0  0  0  0  0  0  0  0  0  0  0
    4.2171   -1.4989    2.8693 C   0  0  0  0  0  0  0  0  0  0  0  0
    2.2821   -0.2856   -2.4501 C   0  0  0  0  0  0  0  0  0  0  0  0
    1.1637    0.1145   -1.6801 C   0  0  0  0  0  0  0  0  0  0  0  0
    0.2310    1.0610   -2.1400 C   0  0  0  0  0  0  0  0  0  0  0  0
   -0.8777    1.4415   -1.3632 C   0  0  0  0  0  0  0  0  0  0  0  0
   -1.8384    2.3769   -1.8172 C   0  0  0  0  0  0  0  0  0  0  0  0
   -2.8815    2.9593    1.4348 C   0  0  0  0  0  0  0  0  0  0  0  0
   -2.0586    4.4881    1.4924 S   0  0  0  0  0  0  0  0  0  0  0  0
   -2.0648    4.5288    3.1925 C   0  0  0  0  0  0  0  0  0  0  0  0
   -2.6666    3.4174    3.7282 C   0  0  0  0  0  0  0  0  0  0  0  0
   -3.1394    2.5005    2.7286 C   0  0  0  0  0  0  0  0  0  0  0  0
   -3.7980    1.2598    2.8798 C   0  0  0  0  0  0  0  0  0  0  0  0
   -7.5804   -6.2712   -1.6018 H   0  0  0  0  0  0  0  0  0  0  0  0
   -7.1998   -5.4277    0.8574 H   0  0  0  0  0  0  0  0  0  0  0  0
   -6.0603   -3.1366    2.1024 H   0  0  0  0  0  0  0  0  0  0  0  0
   -5.0246   -1.0872    2.9798 H   0  0  0  0  0  0  0  0  0  0  0  0
   -4.1595    0.4654   -1.6299 H   0  0  0  0  0  0  0  0  0  0  0  0
   -5.1684   -1.5654   -2.5311 H   0  0  0  0  0  0  0  0  0  0  0  0
   -4.7689    3.9914   -1.0298 H   0  0  0  0  0  0  0  0  0  0  0  0
   -4.3917    4.9664   -3.2613 H   0  0  0  0  0  0  0  0  0  0  0  0
   -2.4228    4.3174   -4.5840 H   0  0  0  0  0  0  0  0  0  0  0  0
   -0.3889    3.0186   -4.8527 H   0  0  0  0  0  0  0  0  0  0  0  0
    1.6501    1.7027   -5.1649 H   0  0  0  0  0  0  0  0  0  0  0  0
    3.6704    0.3994   -5.5102 H   0  0  0  0  0  0  0  0  0  0  0  0
    5.3103   -1.2586   -4.7294 H   0  0  0  0  0  0  0  0  0  0  0  0
    5.0569   -2.3133   -2.5158 H   0  0  0  0  0  0  0  0  0  0  0  0
    0.5536   -6.0915   -1.1455 H   0  0  0  0  0  0  0  0  0  0  0  0
    1.3770   -5.7177    1.3186 H   0  0  0  0  0  0  0  0  0  0  0  0
    2.8616   -3.7855    2.7194 H   0  0  0  0  0  0  0  0  0  0  0  0
    4.5310    0.4413   -0.4432 H   0  0  0  0  0  0  0  0  0  0  0  0
    5.7864    2.2091    0.6779 H   0  0  0  0  0  0  0  0  0  0  0  0
    7.9388    4.1156    5.2120 H   0  0  0  0  0  0  0  0  0  0  0  0
    6.8836    1.8718    6.0822 H   0  0  0  0  0  0  0  0  0  0  0  0
    5.4016   -0.2843    4.9636 H   0  0  0  0  0  0  0  0  0  0  0  0
    4.1295   -2.0421    3.8093 H   0  0  0  0  0  0  0  0  0  0  0  0
    1.0070   -0.3250   -0.6959 H   0  0  0  0  0  0  0  0  0  0  0  0
   -0.9961    0.9881   -0.3801 H   0  0  0  0  0  0  0  0  0  0  0  0
   -1.6251    5.3637    3.7205 H   0  0  0  0  0  0  0  0  0  0  0  0
   -2.7663    3.2577    4.7949 H   0  0  0  0  0  0  0  0  0  0  0  0
   -3.9984    0.9003    3.8871 H   0  0  0  0  0  0  0  0  0  0  0  0
  1  2  4  0
  2  3  4  0
  3  4  4  0
  4  5  4  0
  5  6  4  0
  6  7  4  0
  7  8  4  0
  8  9  4  0
  9 10  4  0
 10 11  4  0
 11 12  4  0
 12 13  4  0
  8 14  4  0
 14 15  1  0
 15 16  4  0
 16 17  4  0
 17 18  4  0
 18 19  4  0
 19 20  4  0
 20 21  4  0
 21 22  4  0
 22 23  4  0
 23 24  4  0
 24 25  4  0
 25 26  4  0
 26 27  4  0
 27 28  1  0
 28 29  4  0
 29 30  4  0
 30 31  4  0
 31 32  4  0
 32 33  4  0
 33 34  4  0
 34 35  4  0
 35 36  4  0
 36 37  4  0
 37 38  4  0
 38 39  4  0
 39 40  4  0
 40 41  4  0
 41 42  4  0
 42 43  4  0
 43 44  4  0
 44 45  4  0
 45 46  4  0
 46 47  4  0
 27 48  4  0
 48 49  4  0
 49 50  4  0
 50 51  4  0
 51 52  4  0
 14 53  4  0
 53 54  4  0
 54 55  4  0
 55 56  4  0
 56 57  4  0
 57 58  4  0
 13  1  4  0
 52 15  4  0
 57 53  4  0
 12  3  4  0
 52 19  4  0
 10  5  4  0
 50 21  4  0
 58  7  4  0
 48 23  4  0
 36 28  4  0
 46 38  4  0
 33 29  4  0
 47 35  4  0
 44 40  4  0
  1 59  1  0
  2 60  1  0
  4 61  1  0
  6 62  1  0
  9 63  1  0
 11 64  1  0
 16 65  1  0
 17 66  1  0
 18 67  1  0
 20 68  1  0
 22 69  1  0
 24 70  1  0
 25 71  1  0
 26 72  1  0
 31 73  1  0
 32 74  1  0
 34 75  1  0
 37 76  1  0
 39 77  1  0
 42 78  1  0
 43 79  1  0
 45 80  1  0
 47 81  1  0
 49 82  1  0
 51 83  1  0
 55 84  1  0
 56 85  1  0
 58 86  1  0
M  END
