
     RDKit          3D

 80 91  0  0  0  0  0  0  0  0999 V2000
   -5.2466    4.0122   -1.7519 C   0  0  0  0  0  0  0  0  0  0  0  0
   -4.5533    4.3592   -0.5915 C   0  0  0  0  0  0  0  0  0  0  0  0
   -4.1095    3.3718    0.3046 C   0  0  0  0  0  0  0  0  0  0  0  0
   -3.4088    3.7059    1.4738 C   0  0  0  0  0  0  0  0  0  0  0  0
   -2.9590    2.7334    2.3778 C   0  0  0  0  0  0  0  0  0  0  0  0
   -2.2582    3.1846    3.5219 C   0  0  0  0  0  0  0  0  0  0  0  0
   -1.8500    2.1500    4.3591 C   0  0  0  0  0  0  0  0  0  0  0  0
   -1.1517    2.3763    5.5195 C   0  0  0  0  0  0  0  0  0  0  0  0
   -0.7927    0.9018    6.3246 S   0  0  0  0  0  0  0  0  0  0  0  0
   -1.5742   -0.0326    5.1109 C   0  0  0  0  0  0  0  0  0  0  0  0
   -2.1009    0.7601    4.1155 C   0  0  0  0  0  0  0  0  0  0  0  0
   -2.7952    0.2788    2.9876 C   0  0  0  0  0  0  0  0  0  0  0  0
   -3.0365   -1.1558    2.7774 C   0  0  0  0  0  0  0  0  0  0  0  0
   -4.2220   -1.7122    3.2929 C   0  0  0  0  0  0  0  0  0  0  0  0
   -4.5064   -3.0635    3.1315 C   0  0  0  0  0  0  0  0  0  0  0  0
   -3.6085   -3.8813    2.4517 C   0  0  0  0  0  0  0  0  0  0  0  0
   -2.4164   -3.3631    1.9231 C   0  0  0  0  0  0  0  0  0  0  0  0
   -1.5199   -4.2051    1.2428 C   0  0  0  0  0  0  0  0  0  0  0  0
   -0.3162   -3.7214    0.7051 C   0  0  0  0  0  0  0  0  0  0  0  0
    0.5844   -4.5632    0.0327 C   0  0  0  0  0  0  0  0  0  0  0  0
    1.7929   -4.0791   -0.4974 C   0  0  0  0  0  0  0  0  0  0  0  0
    2.6729   -4.9502   -1.1578 C   0  0  0  0  0  0  0  0  0  0  0  0
    3.8768   -4.4905   -1.6832 C   0  0  0  0  0  0  0  0  0  0  0  0
    4.2173   -3.1488   -1.5543 C   0  0  0  0  0  0  0  0  0  0  0  0
    3.3597   -2.2437   -0.9011 C   0  0  0  0  0  0  0  0  0  0  0  0
    3.7826   -0.8396   -0.7988 C   0  0  0  0  0  0  0  0  0  0  0  0
    3.5752    0.1649   -1.8091 C   0  0  0  0  0  0  0  0  0  0  0  0
    2.9056   -0.1514   -3.0104 C   0  0  0  0  0  0  0  0  0  0  0  0
    2.6861    0.7889   -4.0320 C   0  0  0  0  0  0  0  0  0  0  0  0
    2.0212    0.4386   -5.2193 C   0  0  0  0  0  0  0  0  0  0  0  0
    1.8129    1.3804   -6.2280 C   0  0  0  0  0  0  0  0  0  0  0  0
    2.2650    2.6852   -6.0626 C   0  0  0  0  0  0  0  0  0  0  0  0
    2.9244    3.0476   -4.8872 C   0  0  0  0  0  0  0  0  0  0  0  0
    3.1418    2.1091   -3.8638 C   0  0  0  0  0  0  0  0  0  0  0  0
    3.8029    2.4601   -2.6767 C   0  0  0  0  0  0  0  0  0  0  0  0
    4.0327    1.5352   -1.6486 C   0  0  0  0  0  0  0  0  0  0  0  0
    4.7091    2.0006   -0.4956 C   0  0  0  0  0  0  0  0  0  0  0  0
    4.8960    1.0132    0.4675 C   0  0  0  0  0  0  0  0  0  0  0  0
    5.5301    1.2612    1.6598 C   0  0  0  0  0  0  0  0  0  0  0  0
    5.6021   -0.1548    2.6300 S   0  0  0  0  0  0  0  0  0  0  0  0
    4.7815   -1.0927    1.4452 C   0  0  0  0  0  0  0  0  0  0  0  0
    4.4602   -0.3456    0.3339 C   0  0  0  0  0  0  0  0  0  0  0  0
    2.1247   -2.7101   -0.3631 C   0  0  0  0  0  0  0  0  0  0  0  0
    1.2003   -1.8751    0.3087 C   0  0  0  0  0  0  0  0  0  0  0  0
   -0.0045   -2.3619    0.8452 C   0  0  0  0  0  0  0  0  0  0  0  0
   -0.9021   -1.5179    1.5223 C   0  0  0  0  0  0  0  0  0  0  0  0
   -2.1156   -1.9891    2.0775 C   0  0  0  0  0  0  0  0  0  0  0  0
   -3.2252    1.3308    2.1043 C   0  0  0  0  0  0  0  0  0  0  0  0
   -3.9284    1.0300    0.9186 C   0  0  0  0  0  0  0  0  0  0  0  0
   -4.3713    2.0185    0.0228 C   0  0  0  0  0  0  0  0  0  0  0  0
   -5.0695    1.6838   -1.1498 C   0  0  0  0  0  0  0  0  0  0  0  0
   -5.5047    2.6744   -2.0311 C   0  0  0  0  0  0  0  0  0  0  0  0
   -5.5833    4.7864   -2.4362 H   0  0  0  0  0  0  0  0  0  0  0  0
   -4.3600    5.4107   -0.3912 H   0  0  0  0  0  0  0  0  0  0  0  0
   -3.2108    4.7577    1.6777 H   0  0  0  0  0  0  0  0  0  0  0  0
   -2.0580    4.2303    3.7195 H   0  0  0  0  0  0  0  0  0  0  0  0
   -0.8277    3.3154    5.9462 H   0  0  0  0  0  0  0  0  0  0  0  0
   -1.5938   -1.1101    5.2047 H   0  0  0  0  0  0  0  0  0  0  0  0
   -4.9307   -1.0812    3.8271 H   0  0  0  0  0  0  0  0  0  0  0  0
   -5.4254   -3.4793    3.5357 H   0  0  0  0  0  0  0  0  0  0  0  0
   -3.8483   -4.9367    2.3375 H   0  0  0  0  0  0  0  0  0  0  0  0
   -1.7619   -5.2607    1.1311 H   0  0  0  0  0  0  0  0  0  0  0  0
    0.3403   -5.6186   -0.0769 H   0  0  0  0  0  0  0  0  0  0  0  0
    2.4249   -6.0040   -1.2678 H   0  0  0  0  0  0  0  0  0  0  0  0
    4.5490   -5.1769   -2.1912 H   0  0  0  0  0  0  0  0  0  0  0  0
    5.1626   -2.7998   -1.9673 H   0  0  0  0  0  0  0  0  0  0  0  0
    2.5354   -1.1644   -3.1662 H   0  0  0  0  0  0  0  0  0  0  0  0
    1.6588   -0.5768   -5.3660 H   0  0  0  0  0  0  0  0  0  0  0  0
    1.2968    1.0925   -7.1400 H   0  0  0  0  0  0  0  0  0  0  0  0
    2.1041    3.4215   -6.8455 H   0  0  0  0  0  0  0  0  0  0  0  0
    3.2692    4.0727   -4.7741 H   0  0  0  0  0  0  0  0  0  0  0  0
    4.1459    3.4875   -2.5579 H   0  0  0  0  0  0  0  0  0  0  0  0
    5.0451    3.0235   -0.3786 H   0  0  0  0  0  0  0  0  0  0  0  0
    5.9562    2.1858    2.0239 H   0  0  0  0  0  0  0  0  0  0  0  0
    4.5817   -2.1371    1.6439 H   0  0  0  0  0  0  0  0  0  0  0  0
    1.4222   -0.8147    0.4235 H   0  0  0  0  0  0  0  0  0  0  0  0
   -0.6426   -0.4643    1.6203 H   0  0  0  0  0  0  0  0  0  0  0  0
   -4.1378   -0.0100    0.6697 H   0  0  0  0  0  0  0  0  0  0  0  0
   -5.2795    0.6426   -1.3854 H   0  0  0  0  0  0  0  0  0  0  0  0
   -6.0434    2.3997   -2.9341 H   0  0  0  0  0  0  0  0  0  0  0  0
  1  2  4  0
  2  3  4  0
  3  4  4  0
  4  5  4  0
  5  6  4  0
  6  7  4  0
  7  8  4  0
  8  9  4  0
  9 10  4  0
 10 11  4  0
 11 12  4  0
 12 13  1  0
 13 14  4  0
 14 15  4  0
 15 16  4  0
 16 17  4  0
 17 18  4  0
 18 19  4  0
 19 20  4  0
 20 21  4  0
 21 22  4  0
 22 23  4  0
 23 24  4  0
 24 25  4  0
 25 26  1  0
 26 27  4  0
 27 28  4  0
 28 29  4  0
 29 30  4  0
 30 31  4  0
 31 32  4  0
 32 33  4  0
 33 34  4  0
 34 35  4  0
 35 36  4  0
 36 37  4  0
 37 38  4  0
 38 39  4  0
 39 40  4  0
 40 41  4  0
 41 42  4  0
 25 43  4  0
 43 44  4  0
 44 45  4  0
 45 46  4  0
 46 47  4  0
 12 48  4  0
 48 49  4  0
 49 50  4  0
 50 51  4  0
 51 52  4  0
 52  1  4  0
 50  3  4  0
 48  5  4  0
 11  7  4  0
 47 13  4  0
 47 17  4  0
 45 19  4  0
 43 21  4  0
 42 26  4  0
 36 27  4  0
 42 38  4  0
 34 29  4  0
  1 53  1  0
  2 54  1  0
  4 55  1  0
  6 56  1  0
  8 57  1  0
 10 58  1  0
 14 59  1  0
 15 60  1  0
 16 61  1  0
 18 62  1  0
 20 63  1  0
 22 64  1  0
 23 65  1  0
 24 66  1  0
 28 67  1  0
 30 68  1  0
 31 69  1  0
 32 70  1  0
 33 71  1  0
 35 72  1  0
 37 73  1  0
 39 74  1  0
 41 75  1  0
 44 76  1  0
 46 77  1  0
 49 78  1  0
 51 79  1  0
 52 80  1  0
M  END
