
     RDKit          3D

 80 91  0  0  0  0  0  0  0  0999 V2000
    2.3845    3.8726   -0.2914 C   0  0  0  0  0  0  0  0  0  0  0  0
    2.6802    3.6174   -1.6271 C   0  0  0  0  0  0  0  0  0  0  0  0
    3.2688    2.4055   -2.0196 C   0  0  0  0  0  0  0  0  0  0  0  0
    3.5561    2.1713   -3.3756 C   0  0  0  0  0  0  0  0  0  0  0  0
    4.1399    0.9794   -3.8194 C   0  0  0  0  0  0  0  0  0  0  0  0
    4.3957    0.8254   -5.2066 C   0  0  0  0  0  0  0  0  0  0  0  0
    4.9764   -0.4037   -5.5137 C   0  0  0  0  0  0  0  0  0  0  0  0
    5.3133   -0.7769   -6.7910 C   0  0  0  0  0  0  0  0  0  0  0  0
    6.0073   -2.3526   -6.8141 S   0  0  0  0  0  0  0  0  0  0  0  0
    5.8522   -2.5277   -5.1082 C   0  0  0  0  0  0  0  0  0  0  0  0
    5.2863   -1.4107   -4.5460 C   0  0  0  0  0  0  0  0  0  0  0  0
    5.0451   -1.2842   -3.1794 C   0  0  0  0  0  0  0  0  0  0  0  0
    4.4540   -0.0399   -2.8397 C   0  0  0  0  0  0  0  0  0  0  0  0
    4.1603    0.2144   -1.4931 C   0  0  0  0  0  0  0  0  0  0  0  0
    3.5707    1.4223   -1.0483 C   0  0  0  0  0  0  0  0  0  0  0  0
    3.2678    1.6892    0.3195 C   0  0  0  0  0  0  0  0  0  0  0  0
    3.5591    0.7205    1.3982 C   0  0  0  0  0  0  0  0  0  0  0  0
    4.8009    0.8136    2.0544 C   0  0  0  0  0  0  0  0  0  0  0  0
    5.1374   -0.0669    3.0763 C   0  0  0  0  0  0  0  0  0  0  0  0
    4.2351   -1.0545    3.4609 C   0  0  0  0  0  0  0  0  0  0  0  0
    2.9861   -1.1769    2.8322 C   0  0  0  0  0  0  0  0  0  0  0  0
    2.0867   -2.1786    3.2362 C   0  0  0  0  0  0  0  0  0  0  0  0
    0.8285   -2.3285    2.6314 C   0  0  0  0  0  0  0  0  0  0  0  0
   -0.0722   -3.3249    3.0396 C   0  0  0  0  0  0  0  0  0  0  0  0
   -1.3364   -3.4679    2.4422 C   0  0  0  0  0  0  0  0  0  0  0  0
   -2.2140   -4.4699    2.8834 C   0  0  0  0  0  0  0  0  0  0  0  0
   -3.4730   -4.6233    2.3107 C   0  0  0  0  0  0  0  0  0  0  0  0
   -3.8720   -3.7728    1.2859 C   0  0  0  0  0  0  0  0  0  0  0  0
   -3.0201   -2.7557    0.8146 C   0  0  0  0  0  0  0  0  0  0  0  0
   -3.5143   -1.8872   -0.2771 C   0  0  0  0  0  0  0  0  0  0  0  0
   -3.4416   -2.3767   -1.5946 C   0  0  0  0  0  0  0  0  0  0  0  0
   -3.8955   -1.6166   -2.6661 C   0  0  0  0  0  0  0  0  0  0  0  0
   -4.4297   -0.3522   -2.4375 C   0  0  0  0  0  0  0  0  0  0  0  0
   -4.5188    0.1717   -1.1387 C   0  0  0  0  0  0  0  0  0  0  0  0
   -5.0593    1.4536   -0.9354 C   0  0  0  0  0  0  0  0  0  0  0  0
   -5.1688    2.0241    0.3377 C   0  0  0  0  0  0  0  0  0  0  0  0
   -5.7233    3.3253    0.4530 C   0  0  0  0  0  0  0  0  0  0  0  0
   -5.7715    3.7748    1.7714 C   0  0  0  0  0  0  0  0  0  0  0  0
   -6.2665    5.0044    2.1280 C   0  0  0  0  0  0  0  0  0  0  0  0
   -6.1770    5.2390    3.8316 S   0  0  0  0  0  0  0  0  0  0  0  0
   -5.4730    3.6879    4.0837 C   0  0  0  0  0  0  0  0  0  0  0  0
   -5.3153    3.0176    2.8962 C   0  0  0  0  0  0  0  0  0  0  0  0
   -4.7683    1.7389    2.8098 C   0  0  0  0  0  0  0  0  0  0  0  0
   -4.7090    1.2570    1.4768 C   0  0  0  0  0  0  0  0  0  0  0  0
   -4.1791   -0.0207    1.2522 C   0  0  0  0  0  0  0  0  0  0  0  0
   -4.0639   -0.5921   -0.0381 C   0  0  0  0  0  0  0  0  0  0  0  0
   -1.7269   -2.5979    1.3962 C   0  0  0  0  0  0  0  0  0  0  0  0
   -0.8004   -1.6074    0.9901 C   0  0  0  0  0  0  0  0  0  0  0  0
    0.4608   -1.4593    1.5947 C   0  0  0  0  0  0  0  0  0  0  0  0
    1.3606   -0.4580    1.1883 C   0  0  0  0  0  0  0  0  0  0  0  0
    2.6310   -0.2887    1.7894 C   0  0  0  0  0  0  0  0  0  0  0  0
    2.6767    2.9162    0.6737 C   0  0  0  0  0  0  0  0  0  0  0  0
    1.9264    4.8152   -0.0044 H   0  0  0  0  0  0  0  0  0  0  0  0
    2.4438    4.3798   -2.3670 H   0  0  0  0  0  0  0  0  0  0  0  0
    3.3147    2.9452   -4.1037 H   0  0  0  0  0  0  0  0  0  0  0  0
    4.1621    1.5846   -5.9416 H   0  0  0  0  0  0  0  0  0  0  0  0
    5.1970   -0.2261   -7.7141 H   0  0  0  0  0  0  0  0  0  0  0  0
    6.1850   -3.4369   -4.6270 H   0  0  0  0  0  0  0  0  0  0  0  0
    5.2802   -2.0481   -2.4490 H   0  0  0  0  0  0  0  0  0  0  0  0
    4.3954   -0.5565   -0.7594 H   0  0  0  0  0  0  0  0  0  0  0  0
    5.5139    1.5819    1.7595 H   0  0  0  0  0  0  0  0  0  0  0  0
    6.1006    0.0165    3.5727 H   0  0  0  0  0  0  0  0  0  0  0  0
    4.5167   -1.7334    4.2634 H   0  0  0  0  0  0  0  0  0  0  0  0
    2.3706   -2.8554    4.0405 H   0  0  0  0  0  0  0  0  0  0  0  0
    0.2157   -4.0002    3.8438 H   0  0  0  0  0  0  0  0  0  0  0  0
   -1.9209   -5.1440    3.6859 H   0  0  0  0  0  0  0  0  0  0  0  0
   -4.1426   -5.4030    2.6640 H   0  0  0  0  0  0  0  0  0  0  0  0
   -4.8614   -3.8976    0.8489 H   0  0  0  0  0  0  0  0  0  0  0  0
   -3.0223   -3.3634   -1.7849 H   0  0  0  0  0  0  0  0  0  0  0  0
   -3.8315   -2.0077   -3.6780 H   0  0  0  0  0  0  0  0  0  0  0  0
   -4.7790    0.2267   -3.2904 H   0  0  0  0  0  0  0  0  0  0  0  0
   -5.4026    2.0209   -1.8001 H   0  0  0  0  0  0  0  0  0  0  0  0
   -6.0684    3.9016   -0.3956 H   0  0  0  0  0  0  0  0  0  0  0  0
   -6.6756    5.7820    1.4980 H   0  0  0  0  0  0  0  0  0  0  0  0
   -5.2201    3.3668    5.0846 H   0  0  0  0  0  0  0  0  0  0  0  0
   -4.4223    1.1683    3.6624 H   0  0  0  0  0  0  0  0  0  0  0  0
   -3.8367   -0.5947    2.1130 H   0  0  0  0  0  0  0  0  0  0  0  0
   -1.0681   -0.9244    0.1845 H   0  0  0  0  0  0  0  0  0  0  0  0
    1.0589    0.2085    0.3810 H   0  0  0  0  0  0  0  0  0  0  0  0
    2.4390    3.1237    1.7157 H   0  0  0  0  0  0  0  0  0  0  0  0
  1  2  4  0
  2  3  4  0
  3  4  4  0
  4  5  4  0
  5  6  4  0
  6  7  4  0
  7  8  4  0
  8  9  4  0
  9 10  4  0
 10 11  4  0
 11 12  4  0
 12 13  4  0
 13 14  4  0
 14 15  4  0
 15 16  4  0
 16 17  1  0
 17 18  4  0
 18 19  4  0
 19 20  4  0
 20 21  4  0
 21 22  4  0
 22 23  4  0
 23 24  4  0
 24 25  4  0
 25 26  4  0
 26 27  4  0
 27 28  4  0
 28 29  4  0
 29 30  1  0
 30 31  4  0
 31 32  4  0
 32 33  4  0
 33 34  4  0
 34 35  4  0
 35 36  4  0
 36 37  4  0
 37 38  4  0
 38 39  4  0
 39 40  4  0
 40 41  4  0
 41 42  4  0
 42 43  4  0
 43 44  4  0
 44 45  4  0
 45 46  4  0
 29 47  4  0
 47 48  4  0
 48 49  4  0
 49 50  4  0
 50 51  4  0
 16 52  4  0
 52  1  4  0
 15  3  4  0
 51 17  4  0
 13  5  4  0
 51 21  4  0
 11  7  4  0
 49 23  4  0
 47 25  4  0
 46 30  4  0
 46 34  4  0
 44 36  4  0
 42 38  4  0
  1 53  1  0
  2 54  1  0
  4 55  1  0
  6 56  1  0
  8 57  1  0
 10 58  1  0
 12 59  1  0
 14 60  1  0
 18 61  1  0
 19 62  1  0
 20 63  1  0
 22 64  1  0
 24 65  1  0
 26 66  1  0
 27 67  1  0
 28 68  1  0
 31 69  1  0
 32 70  1  0
 33 71  1  0
 35 72  1  0
 37 73  1  0
 39 74  1  0
 41 75  1  0
 43 76  1  0
 45 77  1  0
 48 78  1  0
 50 79  1  0
 52 80  1  0
M  END
