
     RDKit          3D

 80 91  0  0  0  0  0  0  0  0999 V2000
    4.2147   -0.1806    4.0745 C   0  0  0  0  0  0  0  0  0  0  0  0
    4.1157    1.1031    3.5433 C   0  0  0  0  0  0  0  0  0  0  0  0
    3.9860    1.3106    2.1584 C   0  0  0  0  0  0  0  0  0  0  0  0
    3.8839    2.6146    1.6595 C   0  0  0  0  0  0  0  0  0  0  0  0
    3.7386    2.8874    0.2981 C   0  0  0  0  0  0  0  0  0  0  0  0
    3.6409    4.2546   -0.0743 C   0  0  0  0  0  0  0  0  0  0  0  0
    3.4887    4.4358   -1.4454 C   0  0  0  0  0  0  0  0  0  0  0  0
    3.3725    5.6704   -2.0339 C   0  0  0  0  0  0  0  0  0  0  0  0
    3.1942    5.5276   -3.7409 S   0  0  0  0  0  0  0  0  0  0  0  0
    3.2735    3.8087   -3.6791 C   0  0  0  0  0  0  0  0  0  0  0  0
    3.4336    3.3689   -2.3888 C   0  0  0  0  0  0  0  0  0  0  0  0
    3.5289    2.0208   -2.0475 C   0  0  0  0  0  0  0  0  0  0  0  0
    3.6925    1.7799   -0.6449 C   0  0  0  0  0  0  0  0  0  0  0  0
    3.8101    0.4489   -0.1334 C   0  0  0  0  0  0  0  0  0  0  0  0
    3.7874   -0.7106   -1.0683 C   0  0  0  0  0  0  0  0  0  0  0  0
    4.9993   -1.1016   -1.6697 C   0  0  0  0  0  0  0  0  0  0  0  0
    5.0444   -2.1713   -2.5563 C   0  0  0  0  0  0  0  0  0  0  0  0
    3.8790   -2.8716   -2.8534 C   0  0  0  0  0  0  0  0  0  0  0  0
    2.6538   -2.5169   -2.2685 C   0  0  0  0  0  0  0  0  0  0  0  0
    1.4899   -3.2430   -2.5731 C   0  0  0  0  0  0  0  0  0  0  0  0
    0.2505   -2.9252   -1.9956 C   0  0  0  0  0  0  0  0  0  0  0  0
   -0.9109   -3.6570   -2.2903 C   0  0  0  0  0  0  0  0  0  0  0  0
   -2.1485   -3.3471   -1.7014 C   0  0  0  0  0  0  0  0  0  0  0  0
   -3.2894   -4.1025   -2.0147 C   0  0  0  0  0  0  0  0  0  0  0  0
   -4.5213   -3.8153   -1.4339 C   0  0  0  0  0  0  0  0  0  0  0  0
   -4.6282   -2.7665   -0.5277 C   0  0  0  0  0  0  0  0  0  0  0  0
   -3.5066   -1.9849   -0.1902 C   0  0  0  0  0  0  0  0  0  0  0  0
   -3.6880   -0.8830    0.7947 C   0  0  0  0  0  0  0  0  0  0  0  0
   -3.4869   -1.1536    2.1887 C   0  0  0  0  0  0  0  0  0  0  0  0
   -3.1120   -2.4229    2.6994 C   0  0  0  0  0  0  0  0  0  0  0  0
   -2.9177   -2.6484    4.0638 C   0  0  0  0  0  0  0  0  0  0  0  0
   -3.0926   -1.6093    4.9639 C   0  0  0  0  0  0  0  0  0  0  0  0
   -3.4615   -0.3501    4.4963 C   0  0  0  0  0  0  0  0  0  0  0  0
   -3.6603   -0.1113    3.1246 C   0  0  0  0  0  0  0  0  0  0  0  0
   -4.0291    1.1670    2.6885 C   0  0  0  0  0  0  0  0  0  0  0  0
   -4.2317    1.4706    1.3408 C   0  0  0  0  0  0  0  0  0  0  0  0
   -4.5980    2.8077    1.0326 C   0  0  0  0  0  0  0  0  0  0  0  0
   -4.7708    3.0241   -0.3310 C   0  0  0  0  0  0  0  0  0  0  0  0
   -5.1224    4.2399   -0.8622 C   0  0  0  0  0  0  0  0  0  0  0  0
   -5.2458    4.1534   -2.5778 S   0  0  0  0  0  0  0  0  0  0  0  0
   -4.8252    2.4838   -2.5968 C   0  0  0  0  0  0  0  0  0  0  0  0
   -4.6014    2.0174   -1.3255 C   0  0  0  0  0  0  0  0  0  0  0  0
   -4.2449    0.6990   -1.0474 C   0  0  0  0  0  0  0  0  0  0  0  0
   -4.0568    0.4235    0.3454 C   0  0  0  0  0  0  0  0  0  0  0  0
   -2.2436   -2.2729   -0.7859 C   0  0  0  0  0  0  0  0  0  0  0  0
   -1.0655   -1.5406   -0.5078 C   0  0  0  0  0  0  0  0  0  0  0  0
    0.1716   -1.8521   -1.0971 C   0  0  0  0  0  0  0  0  0  0  0  0
    1.3326   -1.1171   -0.8011 C   0  0  0  0  0  0  0  0  0  0  0  0
    2.5915   -1.4285   -1.3664 C   0  0  0  0  0  0  0  0  0  0  0  0
    3.9556    0.2111    1.2734 C   0  0  0  0  0  0  0  0  0  0  0  0
    4.0666   -1.0812    1.8476 C   0  0  0  0  0  0  0  0  0  0  0  0
    4.1911   -1.2754    3.2250 C   0  0  0  0  0  0  0  0  0  0  0  0
    4.3073   -0.3224    5.1475 H   0  0  0  0  0  0  0  0  0  0  0  0
    4.1356    1.9494    4.2271 H   0  0  0  0  0  0  0  0  0  0  0  0
    3.9138    3.4443    2.3661 H   0  0  0  0  0  0  0  0  0  0  0  0
    3.6775    5.0693    0.6380 H   0  0  0  0  0  0  0  0  0  0  0  0
    3.3805    6.6486   -1.5734 H   0  0  0  0  0  0  0  0  0  0  0  0
    3.1981    3.2312   -4.5902 H   0  0  0  0  0  0  0  0  0  0  0  0
    3.4765    1.2307   -2.7859 H   0  0  0  0  0  0  0  0  0  0  0  0
    5.9165   -0.5606   -1.4423 H   0  0  0  0  0  0  0  0  0  0  0  0
    5.9867   -2.4599   -3.0143 H   0  0  0  0  0  0  0  0  0  0  0  0
    3.9359   -3.7069   -3.5486 H   0  0  0  0  0  0  0  0  0  0  0  0
    1.5499   -4.0782   -3.2686 H   0  0  0  0  0  0  0  0  0  0  0  0
   -0.8478   -4.4892   -2.9890 H   0  0  0  0  0  0  0  0  0  0  0  0
   -3.2250   -4.9299   -2.7186 H   0  0  0  0  0  0  0  0  0  0  0  0
   -5.3955   -4.4100   -1.6846 H   0  0  0  0  0  0  0  0  0  0  0  0
   -5.5939   -2.5514   -0.0735 H   0  0  0  0  0  0  0  0  0  0  0  0
   -2.9586   -3.2653    2.0271 H   0  0  0  0  0  0  0  0  0  0  0  0
   -2.6273   -3.6351    4.4146 H   0  0  0  0  0  0  0  0  0  0  0  0
   -2.9407   -1.7748    6.0267 H   0  0  0  0  0  0  0  0  0  0  0  0
   -3.5899    0.4531    5.2191 H   0  0  0  0  0  0  0  0  0  0  0  0
   -4.1578    1.9523    3.4338 H   0  0  0  0  0  0  0  0  0  0  0  0
   -4.7261    3.5777    1.7830 H   0  0  0  0  0  0  0  0  0  0  0  0
   -5.3145    5.1751   -0.3548 H   0  0  0  0  0  0  0  0  0  0  0  0
   -4.7686    1.9512   -3.5361 H   0  0  0  0  0  0  0  0  0  0  0  0
   -4.1183   -0.0442   -1.8247 H   0  0  0  0  0  0  0  0  0  0  0  0
   -1.1069   -0.7065    0.1919 H   0  0  0  0  0  0  0  0  0  0  0  0
    1.2512   -0.2852   -0.1024 H   0  0  0  0  0  0  0  0  0  0  0  0
    4.0481   -1.9689    1.2177 H   0  0  0  0  0  0  0  0  0  0  0  0
    4.2651   -2.2826    3.6262 H   0  0  0  0  0  0  0  0  0  0  0  0
  1  2  4  0
  2  3  4  0
  3  4  4  0
  4  5  4  0
  5  6  4  0
  6  7  4  0
  7  8  4  0
  8  9  4  0
  9 10  4  0
 10 11  4  0
 11 12  4  0
 12 13  4  0
 13 14  4  0
 14 15  1  0
 15 16  4  0
 16 17  4  0
 17 18  4  0
 18 19  4  0
 19 20  4  0
 20 21  4  0
 21 22  4  0
 22 23  4  0
 23 24  4  0
 24 25  4  0
 25 26  4  0
 26 27  4  0
 27 28  1  0
 28 29  4  0
 29 30  4  0
 30 31  4  0
 31 32  4  0
 32 33  4  0
 33 34  4  0
 34 35  4  0
 35 36  4  0
 36 37  4  0
 37 38  4  0
 38 39  4  0
 39 40  4  0
 40 41  4  0
 41 42  4  0
 42 43  4  0
 43 44  4  0
 27 45  4  0
 45 46  4  0
 46 47  4  0
 47 48  4  0
 48 49  4  0
 14 50  4  0
 50 51  4  0
 51 52  4  0
 52  1  4  0
 50  3  4  0
 13  5  4  0
 49 15  4  0
 11  7  4  0
 49 19  4  0
 47 21  4  0
 45 23  4  0
 44 28  4  0
 34 29  4  0
 44 36  4  0
 42 38  4  0
  1 53  1  0
  2 54  1  0
  4 55  1  0
  6 56  1  0
  8 57  1  0
 10 58  1  0
 12 59  1  0
 16 60  1  0
 17 61  1  0
 18 62  1  0
 20 63  1  0
 22 64  1  0
 24 65  1  0
 25 66  1  0
 26 67  1  0
 30 68  1  0
 31 69  1  0
 32 70  1  0
 33 71  1  0
 35 72  1  0
 37 73  1  0
 39 74  1  0
 41 75  1  0
 43 76  1  0
 46 77  1  0
 48 78  1  0
 51 79  1  0
 52 80  1  0
M  END
