
     RDKit          3D

 78 89  0  0  0  0  0  0  0  0999 V2000
   -4.4677   -4.5627   -1.3483 C   0  0  0  0  0  0  0  0  0  0  0  0
   -4.5370   -3.2049   -1.6543 C   0  0  0  0  0  0  0  0  0  0  0  0
   -4.2138   -2.2374   -0.6908 C   0  0  0  0  0  0  0  0  0  0  0  0
   -3.8142   -2.6446    0.6020 C   0  0  0  0  0  0  0  0  0  0  0  0
   -3.7439   -4.0251    0.9077 C   0  0  0  0  0  0  0  0  0  0  0  0
   -4.0733   -4.9701   -0.0753 C   0  0  0  0  0  0  0  0  0  0  0  0
   -3.3455   -4.4241    2.1884 C   0  0  0  0  0  0  0  0  0  0  0  0
   -3.0196   -3.4762    3.1591 C   0  0  0  0  0  0  0  0  0  0  0  0
   -3.0854   -2.1062    2.8747 C   0  0  0  0  0  0  0  0  0  0  0  0
   -2.7597   -1.1606    3.8510 C   0  0  0  0  0  0  0  0  0  0  0  0
   -2.8263    0.2008    3.5653 C   0  0  0  0  0  0  0  0  0  0  0  0
   -3.2179    0.6567    2.2951 C   0  0  0  0  0  0  0  0  0  0  0  0
   -3.2639    2.1166    2.0640 C   0  0  0  0  0  0  0  0  0  0  0  0
   -4.4463    2.8039    2.3955 C   0  0  0  0  0  0  0  0  0  0  0  0
   -4.5518    4.1773    2.2062 C   0  0  0  0  0  0  0  0  0  0  0  0
   -3.4747    4.8873    1.6830 C   0  0  0  0  0  0  0  0  0  0  0  0
   -2.2788    4.2372    1.3408 C   0  0  0  0  0  0  0  0  0  0  0  0
   -1.2019    4.9691    0.8107 C   0  0  0  0  0  0  0  0  0  0  0  0
    0.0075    4.3499    0.4560 C   0  0  0  0  0  0  0  0  0  0  0  0
    1.0829    5.0780   -0.0779 C   0  0  0  0  0  0  0  0  0  0  0  0
    2.2915    4.4550   -0.4354 C   0  0  0  0  0  0  0  0  0  0  0  0
    3.3451    5.2114   -0.9710 C   0  0  0  0  0  0  0  0  0  0  0  0
    4.5480    4.6105   -1.3319 C   0  0  0  0  0  0  0  0  0  0  0  0
    4.7137    3.2407   -1.1607 C   0  0  0  0  0  0  0  0  0  0  0  0
    3.6800    2.4485   -0.6284 C   0  0  0  0  0  0  0  0  0  0  0  0
    3.9217    0.9980   -0.4717 C   0  0  0  0  0  0  0  0  0  0  0  0
    4.5504    0.5554    0.7045 C   0  0  0  0  0  0  0  0  0  0  0  0
    4.8010   -0.7975    0.9200 C   0  0  0  0  0  0  0  0  0  0  0  0
    4.4295   -1.7478   -0.0352 C   0  0  0  0  0  0  0  0  0  0  0  0
    4.6766   -3.1097    0.1798 C   0  0  0  0  0  0  0  0  0  0  0  0
    4.3049   -4.0620   -0.7700 C   0  0  0  0  0  0  0  0  0  0  0  0
    3.6768   -3.6755   -1.9592 C   0  0  0  0  0  0  0  0  0  0  0  0
    3.2978   -4.6248   -2.9196 C   0  0  0  0  0  0  0  0  0  0  0  0
    2.6727   -4.2295   -4.1008 C   0  0  0  0  0  0  0  0  0  0  0  0
    2.4190   -2.8799   -4.3366 C   0  0  0  0  0  0  0  0  0  0  0  0
    2.7865   -1.9087   -3.3937 C   0  0  0  0  0  0  0  0  0  0  0  0
    3.4206   -2.3033   -2.1939 C   0  0  0  0  0  0  0  0  0  0  0  0
    3.7965   -1.3290   -1.2303 C   0  0  0  0  0  0  0  0  0  0  0  0
    3.5393    0.0477   -1.4601 C   0  0  0  0  0  0  0  0  0  0  0  0
    2.9056    0.4042   -2.6698 C   0  0  0  0  0  0  0  0  0  0  0  0
    2.5362   -0.5529   -3.6177 C   0  0  0  0  0  0  0  0  0  0  0  0
    2.4466    3.0599   -0.2567 C   0  0  0  0  0  0  0  0  0  0  0  0
    1.3530    2.3432    0.2838 C   0  0  0  0  0  0  0  0  0  0  0  0
    0.1441    2.9665    0.6377 C   0  0  0  0  0  0  0  0  0  0  0  0
   -0.9315    2.2334    1.1675 C   0  0  0  0  0  0  0  0  0  0  0  0
   -2.1578    2.8396    1.5289 C   0  0  0  0  0  0  0  0  0  0  0  0
   -3.5547   -0.2891    1.2859 C   0  0  0  0  0  0  0  0  0  0  0  0
   -3.4852   -1.6745    1.5871 C   0  0  0  0  0  0  0  0  0  0  0  0
   -3.9560    0.0800   -0.0159 C   0  0  0  0  0  0  0  0  0  0  0  0
   -4.2786   -0.8732   -0.9850 C   0  0  0  0  0  0  0  0  0  0  0  0
   -4.7209   -5.3036   -2.1022 H   0  0  0  0  0  0  0  0  0  0  0  0
   -4.8462   -2.9057   -2.6533 H   0  0  0  0  0  0  0  0  0  0  0  0
   -4.0247   -6.0342    0.1447 H   0  0  0  0  0  0  0  0  0  0  0  0
   -3.2846   -5.4795    2.4438 H   0  0  0  0  0  0  0  0  0  0  0  0
   -2.7128   -3.8208    4.1444 H   0  0  0  0  0  0  0  0  0  0  0  0
   -2.4495   -1.4739    4.8453 H   0  0  0  0  0  0  0  0  0  0  0  0
   -2.5647    0.9175    4.3421 H   0  0  0  0  0  0  0  0  0  0  0  0
   -5.2951    2.2573    2.8033 H   0  0  0  0  0  0  0  0  0  0  0  0
   -5.4723    4.6933    2.4656 H   0  0  0  0  0  0  0  0  0  0  0  0
   -3.5774    5.9616    1.5426 H   0  0  0  0  0  0  0  0  0  0  0  0
   -1.3069    6.0435    0.6688 H   0  0  0  0  0  0  0  0  0  0  0  0
    0.9751    6.1520   -0.2202 H   0  0  0  0  0  0  0  0  0  0  0  0
    3.2351    6.2845   -1.1136 H   0  0  0  0  0  0  0  0  0  0  0  0
    5.3545    5.2087   -1.7472 H   0  0  0  0  0  0  0  0  0  0  0  0
    5.6572    2.7799   -1.4488 H   0  0  0  0  0  0  0  0  0  0  0  0
    4.8440    1.2754    1.4667 H   0  0  0  0  0  0  0  0  0  0  0  0
    5.2874   -1.1007    1.8443 H   0  0  0  0  0  0  0  0  0  0  0  0
    5.1626   -3.4449    1.0936 H   0  0  0  0  0  0  0  0  0  0  0  0
    4.5111   -5.1111   -0.5704 H   0  0  0  0  0  0  0  0  0  0  0  0
    3.4877   -5.6829   -2.7539 H   0  0  0  0  0  0  0  0  0  0  0  0
    2.3837   -4.9736   -4.8383 H   0  0  0  0  0  0  0  0  0  0  0  0
    1.9309   -2.5900   -5.2646 H   0  0  0  0  0  0  0  0  0  0  0  0
    2.6842    1.4469   -2.8912 H   0  0  0  0  0  0  0  0  0  0  0  0
    2.0482   -0.2228   -4.5320 H   0  0  0  0  0  0  0  0  0  0  0  0
    1.4394    1.2671    0.4309 H   0  0  0  0  0  0  0  0  0  0  0  0
   -0.8074    1.1582    1.2955 H   0  0  0  0  0  0  0  0  0  0  0  0
   -4.0205    1.1298   -0.2973 H   0  0  0  0  0  0  0  0  0  0  0  0
   -4.5803   -0.5332   -1.9731 H   0  0  0  0  0  0  0  0  0  0  0  0
  1  2  4  0
  2  3  4  0
  3  4  4  0
  4  5  4  0
  5  6  4  0
  5  7  4  0
  7  8  4  0
  8  9  4  0
  9 10  4  0
 10 11  4  0
 11 12  4  0
 12 13  1  0
 13 14  4  0
 14 15  4  0
 15 16  4  0
 16 17  4  0
 17 18  4  0
 18 19  4  0
 19 20  4  0
 20 21  4  0
 21 22  4  0
 22 23  4  0
 23 24  4  0
 24 25  4  0
 25 26  1  0
 26 27  4  0
 27 28  4  0
 28 29  4  0
 29 30  4  0
 30 31  4  0
 31 32  4  0
 32 33  4  0
 33 34  4  0
 34 35  4  0
 35 36  4  0
 36 37  4  0
 37 38  4  0
 38 39  4  0
 39 40  4  0
 40 41  4  0
 25 42  4  0
 42 43  4  0
 43 44  4  0
 44 45  4  0
 45 46  4  0
 12 47  4  0
 47 48  4  0
 47 49  4  0
 49 50  4  0
  6  1  4  0
 48  9  4  0
 50  3  4  0
 48  4  4  0
 46 13  4  0
 46 17  4  0
 44 19  4  0
 42 21  4  0
 39 26  4  0
 38 29  4  0
 37 32  4  0
 41 36  4  0
  1 51  1  0
  2 52  1  0
  6 53  1  0
  7 54  1  0
  8 55  1  0
 10 56  1  0
 11 57  1  0
 14 58  1  0
 15 59  1  0
 16 60  1  0
 18 61  1  0
 20 62  1  0
 22 63  1  0
 23 64  1  0
 24 65  1  0
 27 66  1  0
 28 67  1  0
 30 68  1  0
 31 69  1  0
 33 70  1  0
 34 71  1  0
 35 72  1  0
 40 73  1  0
 41 74  1  0
 43 75  1  0
 45 76  1  0
 49 77  1  0
 50 78  1  0
M  END
