
     RDKit          3D

 78 89  0  0  0  0  0  0  0  0999 V2000
    2.5537   -3.9032   -3.8466 C   0  0  0  0  0  0  0  0  0  0  0  0
    2.6576   -2.5146   -3.7976 C   0  0  0  0  0  0  0  0  0  0  0  0
    3.1099   -1.8720   -2.6356 C   0  0  0  0  0  0  0  0  0  0  0  0
    3.4622   -2.6404   -1.5056 C   0  0  0  0  0  0  0  0  0  0  0  0
    3.3567   -4.0513   -1.5595 C   0  0  0  0  0  0  0  0  0  0  0  0
    2.9019   -4.6670   -2.7346 C   0  0  0  0  0  0  0  0  0  0  0  0
    3.7072   -4.8090   -0.4366 C   0  0  0  0  0  0  0  0  0  0  0  0
    4.1555   -4.1867    0.7289 C   0  0  0  0  0  0  0  0  0  0  0  0
    4.2642   -2.7920    0.8010 C   0  0  0  0  0  0  0  0  0  0  0  0
    4.7109   -2.1723    1.9739 C   0  0  0  0  0  0  0  0  0  0  0  0
    4.8126   -0.7877    2.0446 C   0  0  0  0  0  0  0  0  0  0  0  0
    4.4699   -0.0075    0.9409 C   0  0  0  0  0  0  0  0  0  0  0  0
    4.0180   -0.5867   -0.2662 C   0  0  0  0  0  0  0  0  0  0  0  0
    3.9165   -2.0011   -0.3237 C   0  0  0  0  0  0  0  0  0  0  0  0
    3.6587    0.1780   -1.4102 C   0  0  0  0  0  0  0  0  0  0  0  0
    3.7202    1.6557   -1.4272 C   0  0  0  0  0  0  0  0  0  0  0  0
    4.9139    2.2693   -1.8482 C   0  0  0  0  0  0  0  0  0  0  0  0
    5.0313    3.6546   -1.8816 C   0  0  0  0  0  0  0  0  0  0  0  0
    3.9558    4.4496   -1.4950 C   0  0  0  0  0  0  0  0  0  0  0  0
    2.7477    3.8745   -1.0726 C   0  0  0  0  0  0  0  0  0  0  0  0
    1.6709    4.6915   -0.6849 C   0  0  0  0  0  0  0  0  0  0  0  0
    0.4486    4.1471   -0.2584 C   0  0  0  0  0  0  0  0  0  0  0  0
   -0.6289    4.9584    0.1334 C   0  0  0  0  0  0  0  0  0  0  0  0
   -1.8507    4.4078    0.5591 C   0  0  0  0  0  0  0  0  0  0  0  0
   -2.9073    5.2454    0.9479 C   0  0  0  0  0  0  0  0  0  0  0  0
   -4.1232    4.7157    1.3713 C   0  0  0  0  0  0  0  0  0  0  0  0
   -4.3001    3.3369    1.4091 C   0  0  0  0  0  0  0  0  0  0  0  0
   -3.2655    2.4651    1.0238 C   0  0  0  0  0  0  0  0  0  0  0  0
   -3.5180    1.0090    1.0816 C   0  0  0  0  0  0  0  0  0  0  0  0
   -3.1967    0.3284    2.2709 C   0  0  0  0  0  0  0  0  0  0  0  0
   -3.3925   -1.0502    2.4039 C   0  0  0  0  0  0  0  0  0  0  0  0
   -3.9327   -1.7768    1.3216 C   0  0  0  0  0  0  0  0  0  0  0  0
   -4.1353   -3.1724    1.4486 C   0  0  0  0  0  0  0  0  0  0  0  0
   -3.7947   -3.8152    2.6477 C   0  0  0  0  0  0  0  0  0  0  0  0
   -3.2580   -3.0932    3.7117 C   0  0  0  0  0  0  0  0  0  0  0  0
   -3.0580   -1.7196    3.5904 C   0  0  0  0  0  0  0  0  0  0  0  0
   -4.6710   -3.8883    0.3724 C   0  0  0  0  0  0  0  0  0  0  0  0
   -5.0015   -3.2403   -0.8182 C   0  0  0  0  0  0  0  0  0  0  0  0
   -4.8047   -1.8611   -0.9628 C   0  0  0  0  0  0  0  0  0  0  0  0
   -5.1324   -1.2166   -2.1615 C   0  0  0  0  0  0  0  0  0  0  0  0
   -4.9304    0.1513   -2.3045 C   0  0  0  0  0  0  0  0  0  0  0  0
   -4.4009    0.8905   -1.2476 C   0  0  0  0  0  0  0  0  0  0  0  0
   -4.0597    0.2861   -0.0166 C   0  0  0  0  0  0  0  0  0  0  0  0
   -4.2665   -1.1118    0.1140 C   0  0  0  0  0  0  0  0  0  0  0  0
   -2.0172    3.0030    0.5956 C   0  0  0  0  0  0  0  0  0  0  0  0
   -0.9217    2.2023    0.1977 C   0  0  0  0  0  0  0  0  0  0  0  0
    0.3000    2.7536   -0.2225 C   0  0  0  0  0  0  0  0  0  0  0  0
    1.3758    1.9362   -0.6070 C   0  0  0  0  0  0  0  0  0  0  0  0
    2.6144    2.4661   -1.0364 C   0  0  0  0  0  0  0  0  0  0  0  0
    3.2154   -0.4785   -2.5737 C   0  0  0  0  0  0  0  0  0  0  0  0
    2.2018   -4.3903   -4.7523 H   0  0  0  0  0  0  0  0  0  0  0  0
    2.3807   -1.9353   -4.6759 H   0  0  0  0  0  0  0  0  0  0  0  0
    2.8144   -5.7496   -2.7918 H   0  0  0  0  0  0  0  0  0  0  0  0
    3.6336   -5.8941   -0.4576 H   0  0  0  0  0  0  0  0  0  0  0  0
    4.4189   -4.8053    1.5841 H   0  0  0  0  0  0  0  0  0  0  0  0
    4.9826   -2.7650    2.8446 H   0  0  0  0  0  0  0  0  0  0  0  0
    5.1565   -0.3115    2.9589 H   0  0  0  0  0  0  0  0  0  0  0  0
    4.5587    1.0733    1.0359 H   0  0  0  0  0  0  0  0  0  0  0  0
    5.7621    1.6567   -2.1496 H   0  0  0  0  0  0  0  0  0  0  0  0
    5.9605    4.1146   -2.2074 H   0  0  0  0  0  0  0  0  0  0  0  0
    4.0688    5.5314   -1.5273 H   0  0  0  0  0  0  0  0  0  0  0  0
    1.7857    5.7737   -0.7153 H   0  0  0  0  0  0  0  0  0  0  0  0
   -0.5130    6.0406    0.1071 H   0  0  0  0  0  0  0  0  0  0  0  0
   -2.7896    6.3268    0.9245 H   0  0  0  0  0  0  0  0  0  0  0  0
   -4.9324    5.3767    1.6704 H   0  0  0  0  0  0  0  0  0  0  0  0
   -5.2559    2.9327    1.7380 H   0  0  0  0  0  0  0  0  0  0  0  0
   -2.7758    0.8939    3.1017 H   0  0  0  0  0  0  0  0  0  0  0  0
   -3.9440   -4.8866    2.7610 H   0  0  0  0  0  0  0  0  0  0  0  0
   -2.9945   -3.6008    4.6358 H   0  0  0  0  0  0  0  0  0  0  0  0
   -2.6346   -1.1735    4.4306 H   0  0  0  0  0  0  0  0  0  0  0  0
   -4.8351   -4.9607    0.4496 H   0  0  0  0  0  0  0  0  0  0  0  0
   -5.4139   -3.8269   -1.6363 H   0  0  0  0  0  0  0  0  0  0  0  0
   -5.5457   -1.7774   -2.9968 H   0  0  0  0  0  0  0  0  0  0  0  0
   -5.1824    0.6455   -3.2391 H   0  0  0  0  0  0  0  0  0  0  0  0
   -4.2517    1.9581   -1.3992 H   0  0  0  0  0  0  0  0  0  0  0  0
   -1.0170    1.1167    0.2130 H   0  0  0  0  0  0  0  0  0  0  0  0
    1.2398    0.8556   -0.5674 H   0  0  0  0  0  0  0  0  0  0  0  0
    2.9394    0.1203   -3.4411 H   0  0  0  0  0  0  0  0  0  0  0  0
  1  2  4  0
  2  3  4  0
  3  4  4  0
  4  5  4  0
  5  6  4  0
  5  7  4  0
  7  8  4  0
  8  9  4  0
  9 10  4  0
 10 11  4  0
 11 12  4  0
 12 13  4  0
 13 14  4  0
 13 15  4  0
 15 16  1  0
 16 17  4  0
 17 18  4  0
 18 19  4  0
 19 20  4  0
 20 21  4  0
 21 22  4  0
 22 23  4  0
 23 24  4  0
 24 25  4  0
 25 26  4  0
 26 27  4  0
 27 28  4  0
 28 29  1  0
 29 30  4  0
 30 31  4  0
 31 32  4  0
 32 33  4  0
 33 34  4  0
 34 35  4  0
 35 36  4  0
 33 37  4  0
 37 38  4  0
 38 39  4  0
 39 40  4  0
 40 41  4  0
 41 42  4  0
 42 43  4  0
 43 44  4  0
 28 45  4  0
 45 46  4  0
 46 47  4  0
 47 48  4  0
 48 49  4  0
 15 50  4  0
  6  1  4  0
 14  9  4  0
 49 16  4  0
 50  3  4  0
 14  4  4  0
 49 20  4  0
 47 22  4  0
 45 24  4  0
 43 29  4  0
 36 31  4  0
 44 39  4  0
 44 32  4  0
  1 51  1  0
  2 52  1  0
  6 53  1  0
  7 54  1  0
  8 55  1  0
 10 56  1  0
 11 57  1  0
 12 58  1  0
 17 59  1  0
 18 60  1  0
 19 61  1  0
 21 62  1  0
 23 63  1  0
 25 64  1  0
 26 65  1  0
 27 66  1  0
 30 67  1  0
 34 68  1  0
 35 69  1  0
 36 70  1  0
 37 71  1  0
 38 72  1  0
 40 73  1  0
 41 74  1  0
 42 75  1  0
 46 76  1  0
 48 77  1  0
 50 78  1  0
M  END
