
     RDKit          3D

 78 89  0  0  0  0  0  0  0  0999 V2000
    4.6886    4.8562   -1.0233 C   0  0  0  0  0  0  0  0  0  0  0  0
    4.4858    4.9759    0.3501 C   0  0  0  0  0  0  0  0  0  0  0  0
    4.2413    3.8414    1.1381 C   0  0  0  0  0  0  0  0  0  0  0  0
    4.2001    2.5635    0.5301 C   0  0  0  0  0  0  0  0  0  0  0  0
    4.4068    2.4485   -0.8631 C   0  0  0  0  0  0  0  0  0  0  0  0
    4.6495    3.6004   -1.6262 C   0  0  0  0  0  0  0  0  0  0  0  0
    4.3651    1.1840   -1.4556 C   0  0  0  0  0  0  0  0  0  0  0  0
    4.1215    0.0446   -0.6847 C   0  0  0  0  0  0  0  0  0  0  0  0
    3.9133    0.1204    0.7092 C   0  0  0  0  0  0  0  0  0  0  0  0
    3.6685   -1.0210    1.5235 C   0  0  0  0  0  0  0  0  0  0  0  0
    3.6351   -2.3949    0.9777 C   0  0  0  0  0  0  0  0  0  0  0  0
    4.8467   -3.1107    0.9227 C   0  0  0  0  0  0  0  0  0  0  0  0
    4.8886   -4.4097    0.4300 C   0  0  0  0  0  0  0  0  0  0  0  0
    3.7174   -5.0165   -0.0127 C   0  0  0  0  0  0  0  0  0  0  0  0
    2.4904   -4.3366    0.0287 C   0  0  0  0  0  0  0  0  0  0  0  0
    1.3198   -4.9707   -0.4202 C   0  0  0  0  0  0  0  0  0  0  0  0
    0.0739   -4.3250   -0.3934 C   0  0  0  0  0  0  0  0  0  0  0  0
   -1.0935   -4.9640   -0.8392 C   0  0  0  0  0  0  0  0  0  0  0  0
   -2.3436   -4.3237   -0.8101 C   0  0  0  0  0  0  0  0  0  0  0  0
   -3.4887   -4.9974   -1.2627 C   0  0  0  0  0  0  0  0  0  0  0  0
   -4.7372   -4.3836   -1.2397 C   0  0  0  0  0  0  0  0  0  0  0  0
   -4.8566   -3.0844   -0.7602 C   0  0  0  0  0  0  0  0  0  0  0  0
   -3.7305   -2.3751   -0.3000 C   0  0  0  0  0  0  0  0  0  0  0  0
   -3.9371   -1.0004    0.2040 C   0  0  0  0  0  0  0  0  0  0  0  0
   -3.9082    0.1394   -0.6480 C   0  0  0  0  0  0  0  0  0  0  0  0
   -3.6616    0.0607   -2.0354 C   0  0  0  0  0  0  0  0  0  0  0  0
   -3.6445    1.1986   -2.8459 C   0  0  0  0  0  0  0  0  0  0  0  0
   -3.8727    2.4643   -2.3006 C   0  0  0  0  0  0  0  0  0  0  0  0
   -3.8604    3.6144   -3.1041 C   0  0  0  0  0  0  0  0  0  0  0  0
   -4.0890    4.8716   -2.5481 C   0  0  0  0  0  0  0  0  0  0  0  0
   -4.3314    4.9945   -1.1812 C   0  0  0  0  0  0  0  0  0  0  0  0
   -4.3498    3.8618   -0.3537 C   0  0  0  0  0  0  0  0  0  0  0  0
   -4.1195    2.5824   -0.9143 C   0  0  0  0  0  0  0  0  0  0  0  0
   -4.1369    1.4246   -0.0903 C   0  0  0  0  0  0  0  0  0  0  0  0
   -4.3876    1.5673    1.2957 C   0  0  0  0  0  0  0  0  0  0  0  0
   -4.6117    2.8411    1.8337 C   0  0  0  0  0  0  0  0  0  0  0  0
   -4.5932    3.9743    1.0197 C   0  0  0  0  0  0  0  0  0  0  0  0
   -4.4111    0.4349    2.1145 C   0  0  0  0  0  0  0  0  0  0  0  0
   -4.1908   -0.8304    1.5758 C   0  0  0  0  0  0  0  0  0  0  0  0
   -2.4479   -2.9990   -0.3229 C   0  0  0  0  0  0  0  0  0  0  0  0
   -1.2580   -2.3676    0.1163 C   0  0  0  0  0  0  0  0  0  0  0  0
   -0.0063   -3.0113    0.0901 C   0  0  0  0  0  0  0  0  0  0  0  0
    1.1668   -2.3743    0.5376 C   0  0  0  0  0  0  0  0  0  0  0  0
    2.4317   -3.0120    0.5239 C   0  0  0  0  0  0  0  0  0  0  0  0
    3.4715   -0.8538    2.9049 C   0  0  0  0  0  0  0  0  0  0  0  0
    3.5123    0.4098    3.4892 C   0  0  0  0  0  0  0  0  0  0  0  0
    3.7526    1.5437    2.7085 C   0  0  0  0  0  0  0  0  0  0  0  0
    3.9543    1.4041    1.3141 C   0  0  0  0  0  0  0  0  0  0  0  0
    3.7969    2.8158    3.2934 C   0  0  0  0  0  0  0  0  0  0  0  0
    4.0377    3.9508    2.5182 C   0  0  0  0  0  0  0  0  0  0  0  0
    4.8772    5.7419   -1.6243 H   0  0  0  0  0  0  0  0  0  0  0  0
    4.5203    5.9645    0.8025 H   0  0  0  0  0  0  0  0  0  0  0  0
    4.8099    3.5266   -2.6995 H   0  0  0  0  0  0  0  0  0  0  0  0
    4.5221    1.0688   -2.5258 H   0  0  0  0  0  0  0  0  0  0  0  0
    4.0942   -0.9164   -1.1955 H   0  0  0  0  0  0  0  0  0  0  0  0
    5.7684   -2.6447    1.2681 H   0  0  0  0  0  0  0  0  0  0  0  0
    5.8315   -4.9487    0.3929 H   0  0  0  0  0  0  0  0  0  0  0  0
    3.7700   -6.0348   -0.3930 H   0  0  0  0  0  0  0  0  0  0  0  0
    1.3786   -5.9905   -0.7973 H   0  0  0  0  0  0  0  0  0  0  0  0
   -1.0271   -5.9838   -1.2152 H   0  0  0  0  0  0  0  0  0  0  0  0
   -3.4157   -6.0156   -1.6397 H   0  0  0  0  0  0  0  0  0  0  0  0
   -5.6156   -4.9169   -1.5933 H   0  0  0  0  0  0  0  0  0  0  0  0
   -5.8379   -2.6127   -0.7446 H   0  0  0  0  0  0  0  0  0  0  0  0
   -3.4730   -0.9011   -2.5091 H   0  0  0  0  0  0  0  0  0  0  0  0
   -3.4470    1.0806   -3.9089 H   0  0  0  0  0  0  0  0  0  0  0  0
   -3.6723    3.5371   -4.1727 H   0  0  0  0  0  0  0  0  0  0  0  0
   -4.0786    5.7558   -3.1802 H   0  0  0  0  0  0  0  0  0  0  0  0
   -4.5072    5.9841   -0.7653 H   0  0  0  0  0  0  0  0  0  0  0  0
   -4.8052    2.9644    2.8972 H   0  0  0  0  0  0  0  0  0  0  0  0
   -4.7721    4.9478    1.4706 H   0  0  0  0  0  0  0  0  0  0  0  0
   -4.6050    0.5251    3.1809 H   0  0  0  0  0  0  0  0  0  0  0  0
   -4.2175   -1.6975    2.2340 H   0  0  0  0  0  0  0  0  0  0  0  0
   -1.3035   -1.3450    0.4898 H   0  0  0  0  0  0  0  0  0  0  0  0
    1.0886   -1.3515    0.9058 H   0  0  0  0  0  0  0  0  0  0  0  0
    3.2830   -1.7216    3.5348 H   0  0  0  0  0  0  0  0  0  0  0  0
    3.3547    0.4977    4.5618 H   0  0  0  0  0  0  0  0  0  0  0  0
    3.6449    2.9364    4.3640 H   0  0  0  0  0  0  0  0  0  0  0  0
    4.0656    4.9231    3.0049 H   0  0  0  0  0  0  0  0  0  0  0  0
  1  2  4  0
  2  3  4  0
  3  4  4  0
  4  5  4  0
  5  6  4  0
  5  7  4  0
  7  8  4  0
  8  9  4  0
  9 10  4  0
 10 11  1  0
 11 12  4  0
 12 13  4  0
 13 14  4  0
 14 15  4  0
 15 16  4  0
 16 17  4  0
 17 18  4  0
 18 19  4  0
 19 20  4  0
 20 21  4  0
 21 22  4  0
 22 23  4  0
 23 24  1  0
 24 25  4  0
 25 26  4  0
 26 27  4  0
 27 28  4  0
 28 29  4  0
 29 30  4  0
 30 31  4  0
 31 32  4  0
 32 33  4  0
 33 34  4  0
 34 35  4  0
 35 36  4  0
 36 37  4  0
 35 38  4  0
 38 39  4  0
 23 40  4  0
 40 41  4  0
 41 42  4  0
 42 43  4  0
 43 44  4  0
 10 45  4  0
 45 46  4  0
 46 47  4  0
 47 48  4  0
 47 49  4  0
 49 50  4  0
  6  1  4  0
 48  9  4  0
 50  3  4  0
 48  4  4  0
 44 11  4  0
 44 15  4  0
 42 17  4  0
 40 19  4  0
 39 24  4  0
 34 25  4  0
 33 28  4  0
 37 32  4  0
  1 51  1  0
  2 52  1  0
  6 53  1  0
  7 54  1  0
  8 55  1  0
 12 56  1  0
 13 57  1  0
 14 58  1  0
 16 59  1  0
 18 60  1  0
 20 61  1  0
 21 62  1  0
 22 63  1  0
 26 64  1  0
 27 65  1  0
 29 66  1  0
 30 67  1  0
 31 68  1  0
 36 69  1  0
 37 70  1  0
 38 71  1  0
 39 72  1  0
 41 73  1  0
 43 74  1  0
 45 75  1  0
 46 76  1  0
 49 77  1  0
 50 78  1  0
M  END
