
     RDKit          3D

 78 89  0  0  0  0  0  0  0  0999 V2000
   -4.5904    5.4848    0.9225 C   0  0  0  0  0  0  0  0  0  0  0  0
   -4.6036    4.9722   -0.3744 C   0  0  0  0  0  0  0  0  0  0  0  0
   -4.4442    3.5972   -0.6012 C   0  0  0  0  0  0  0  0  0  0  0  0
   -4.2694    2.7292    0.5014 C   0  0  0  0  0  0  0  0  0  0  0  0
   -4.2557    3.2498    1.8161 C   0  0  0  0  0  0  0  0  0  0  0  0
   -4.4175    4.6295    2.0103 C   0  0  0  0  0  0  0  0  0  0  0  0
   -4.0806    2.3750    2.8967 C   0  0  0  0  0  0  0  0  0  0  0  0
   -3.9218    1.0029    2.6867 C   0  0  0  0  0  0  0  0  0  0  0  0
   -3.9340    0.4703    1.3908 C   0  0  0  0  0  0  0  0  0  0  0  0
   -3.7761   -0.9055    1.1650 C   0  0  0  0  0  0  0  0  0  0  0  0
   -3.7835   -1.4349   -0.1337 C   0  0  0  0  0  0  0  0  0  0  0  0
   -3.6132   -2.8798   -0.3532 C   0  0  0  0  0  0  0  0  0  0  0  0
   -4.7691   -3.6745   -0.4592 C   0  0  0  0  0  0  0  0  0  0  0  0
   -4.6775   -5.0470   -0.6625 C   0  0  0  0  0  0  0  0  0  0  0  0
   -3.4261   -5.6475   -0.7636 C   0  0  0  0  0  0  0  0  0  0  0  0
   -2.2504   -4.8880   -0.6646 C   0  0  0  0  0  0  0  0  0  0  0  0
   -0.9957   -5.5121   -0.7715 C   0  0  0  0  0  0  0  0  0  0  0  0
    0.2008   -4.7833   -0.6803 C   0  0  0  0  0  0  0  0  0  0  0  0
    1.4546   -5.4056   -0.7891 C   0  0  0  0  0  0  0  0  0  0  0  0
    2.6519   -4.6746   -0.7020 C   0  0  0  0  0  0  0  0  0  0  0  0
    3.8870   -5.3306   -0.8143 C   0  0  0  0  0  0  0  0  0  0  0  0
    5.0829   -4.6243   -0.7303 C   0  0  0  0  0  0  0  0  0  0  0  0
    5.0587   -3.2477   -0.5354 C   0  0  0  0  0  0  0  0  0  0  0  0
    3.8406   -2.5532   -0.4202 C   0  0  0  0  0  0  0  0  0  0  0  0
    3.8900   -1.0942   -0.2266 C   0  0  0  0  0  0  0  0  0  0  0  0
    3.6619   -0.2223   -1.3020 C   0  0  0  0  0  0  0  0  0  0  0  0
    3.7019    1.1701   -1.1327 C   0  0  0  0  0  0  0  0  0  0  0  0
    3.9827    1.7041    0.1448 C   0  0  0  0  0  0  0  0  0  0  0  0
    4.2208    0.8383    1.2357 C   0  0  0  0  0  0  0  0  0  0  0  0
    4.1722   -0.5501    1.0351 C   0  0  0  0  0  0  0  0  0  0  0  0
    4.4989    1.3852    2.4958 C   0  0  0  0  0  0  0  0  0  0  0  0
    4.5406    2.7695    2.6808 C   0  0  0  0  0  0  0  0  0  0  0  0
    4.3055    3.6428    1.6104 C   0  0  0  0  0  0  0  0  0  0  0  0
    4.3427    5.0347    1.7798 C   0  0  0  0  0  0  0  0  0  0  0  0
    4.1065    5.8881    0.7026 C   0  0  0  0  0  0  0  0  0  0  0  0
    3.8297    5.3616   -0.5587 C   0  0  0  0  0  0  0  0  0  0  0  0
    3.7855    3.9743   -0.7601 C   0  0  0  0  0  0  0  0  0  0  0  0
    4.0247    3.1081    0.3318 C   0  0  0  0  0  0  0  0  0  0  0  0
    3.5092    3.4271   -2.0202 C   0  0  0  0  0  0  0  0  0  0  0  0
    3.4679    2.0428   -2.2040 C   0  0  0  0  0  0  0  0  0  0  0  0
    2.6127   -3.2740   -0.5000 C   0  0  0  0  0  0  0  0  0  0  0  0
    1.3396   -2.6664   -0.3842 C   0  0  0  0  0  0  0  0  0  0  0  0
    0.1422   -3.3978   -0.4753 C   0  0  0  0  0  0  0  0  0  0  0  0
   -1.1125   -2.7723   -0.3671 C   0  0  0  0  0  0  0  0  0  0  0  0
   -2.3291   -3.4901   -0.4575 C   0  0  0  0  0  0  0  0  0  0  0  0
   -3.9592   -0.5635   -1.2187 C   0  0  0  0  0  0  0  0  0  0  0  0
   -4.1211    0.8171   -1.0246 C   0  0  0  0  0  0  0  0  0  0  0  0
   -4.1081    1.3375    0.2889 C   0  0  0  0  0  0  0  0  0  0  0  0
   -4.2945    1.6917   -2.1060 C   0  0  0  0  0  0  0  0  0  0  0  0
   -4.4543    3.0640   -1.8971 C   0  0  0  0  0  0  0  0  0  0  0  0
   -4.7153    6.5522    1.0856 H   0  0  0  0  0  0  0  0  0  0  0  0
   -4.7397    5.6559   -1.2093 H   0  0  0  0  0  0  0  0  0  0  0  0
   -4.4101    5.0490    3.0138 H   0  0  0  0  0  0  0  0  0  0  0  0
   -4.0665    2.7544    3.9160 H   0  0  0  0  0  0  0  0  0  0  0  0
   -3.7884    0.3524    3.5484 H   0  0  0  0  0  0  0  0  0  0  0  0
   -3.6395   -1.5805    2.0087 H   0  0  0  0  0  0  0  0  0  0  0  0
   -5.7528   -3.2151   -0.3793 H   0  0  0  0  0  0  0  0  0  0  0  0
   -5.5797   -5.6475   -0.7409 H   0  0  0  0  0  0  0  0  0  0  0  0
   -3.3752   -6.7228   -0.9222 H   0  0  0  0  0  0  0  0  0  0  0  0
   -0.9484   -6.5882   -0.9306 H   0  0  0  0  0  0  0  0  0  0  0  0
    1.4985   -6.4822   -0.9462 H   0  0  0  0  0  0  0  0  0  0  0  0
    3.9269   -6.4069   -0.9694 H   0  0  0  0  0  0  0  0  0  0  0  0
    6.0325   -5.1450   -0.8194 H   0  0  0  0  0  0  0  0  0  0  0  0
    6.0006   -2.7047   -0.4781 H   0  0  0  0  0  0  0  0  0  0  0  0
    3.4447   -0.6413   -2.2836 H   0  0  0  0  0  0  0  0  0  0  0  0
    4.3491   -1.2235    1.8726 H   0  0  0  0  0  0  0  0  0  0  0  0
    4.6864    0.7364    3.3487 H   0  0  0  0  0  0  0  0  0  0  0  0
    4.7588    3.1601    3.6723 H   0  0  0  0  0  0  0  0  0  0  0  0
    4.5571    5.4651    2.7554 H   0  0  0  0  0  0  0  0  0  0  0  0
    4.1385    6.9652    0.8462 H   0  0  0  0  0  0  0  0  0  0  0  0
    3.6486    6.0442   -1.3859 H   0  0  0  0  0  0  0  0  0  0  0  0
    3.3226    4.0755   -2.8734 H   0  0  0  0  0  0  0  0  0  0  0  0
    3.2495    1.6512   -3.1952 H   0  0  0  0  0  0  0  0  0  0  0  0
    1.2736   -1.5919   -0.2169 H   0  0  0  0  0  0  0  0  0  0  0  0
   -1.1380   -1.6942   -0.2105 H   0  0  0  0  0  0  0  0  0  0  0  0
   -3.9633   -0.9720   -2.2281 H   0  0  0  0  0  0  0  0  0  0  0  0
   -4.3068    1.3110   -3.1250 H   0  0  0  0  0  0  0  0  0  0  0  0
   -4.5879    3.7144   -2.7589 H   0  0  0  0  0  0  0  0  0  0  0  0
  1  2  4  0
  2  3  4  0
  3  4  4  0
  4  5  4  0
  5  6  4  0
  5  7  4  0
  7  8  4  0
  8  9  4  0
  9 10  4  0
 10 11  4  0
 11 12  1  0
 12 13  4  0
 13 14  4  0
 14 15  4  0
 15 16  4  0
 16 17  4  0
 17 18  4  0
 18 19  4  0
 19 20  4  0
 20 21  4  0
 21 22  4  0
 22 23  4  0
 23 24  4  0
 24 25  1  0
 25 26  4  0
 26 27  4  0
 27 28  4  0
 28 29  4  0
 29 30  4  0
 29 31  4  0
 31 32  4  0
 32 33  4  0
 33 34  4  0
 34 35  4  0
 35 36  4  0
 36 37  4  0
 37 38  4  0
 37 39  4  0
 39 40  4  0
 24 41  4  0
 41 42  4  0
 42 43  4  0
 43 44  4  0
 44 45  4  0
 11 46  4  0
 46 47  4  0
 47 48  4  0
 47 49  4  0
 49 50  4  0
  6  1  4  0
 48  9  4  0
 50  3  4  0
 48  4  4  0
 45 12  4  0
 45 16  4  0
 43 18  4  0
 41 20  4  0
 30 25  4  0
 38 33  4  0
 40 27  4  0
 38 28  4  0
  1 51  1  0
  2 52  1  0
  6 53  1  0
  7 54  1  0
  8 55  1  0
 10 56  1  0
 13 57  1  0
 14 58  1  0
 15 59  1  0
 17 60  1  0
 19 61  1  0
 21 62  1  0
 22 63  1  0
 23 64  1  0
 26 65  1  0
 30 66  1  0
 31 67  1  0
 32 68  1  0
 34 69  1  0
 35 70  1  0
 36 71  1  0
 39 72  1  0
 40 73  1  0
 42 74  1  0
 44 75  1  0
 46 76  1  0
 49 77  1  0
 50 78  1  0
M  END
