
     RDKit          3D

110125  0  0  0  0  0  0  0  0999 V2000
    5.1812    4.7934    6.3618 C   0  0  0  0  0  0  0  0  0  0  0  0
    4.8348    3.6420    7.0619 C   0  0  0  0  0  0  0  0  0  0  0  0
    4.5372    2.4677    6.3680 C   0  0  0  0  0  0  0  0  0  0  0  0
    4.5816    2.4308    4.9643 C   0  0  0  0  0  0  0  0  0  0  0  0
    4.2835    1.2582    4.2498 C   0  0  0  0  0  0  0  0  0  0  0  0
    4.3230    1.2248    2.8449 C   0  0  0  0  0  0  0  0  0  0  0  0
    4.0210    0.0547    2.1251 C   0  0  0  0  0  0  0  0  0  0  0  0
    4.0388   -0.0000    0.7079 C   0  0  0  0  0  0  0  0  0  0  0  0
    4.3832    1.1828    0.0227 C   0  0  0  0  0  0  0  0  0  0  0  0
    4.6956    2.3518    0.7387 C   0  0  0  0  0  0  0  0  0  0  0  0
    4.6675    2.3891    2.1404 C   0  0  0  0  0  0  0  0  0  0  0  0
    4.9706    3.5627    2.8516 C   0  0  0  0  0  0  0  0  0  0  0  0
    4.9314    3.5991    4.2550 C   0  0  0  0  0  0  0  0  0  0  0  0
    5.2296    4.7728    4.9672 C   0  0  0  0  0  0  0  0  0  0  0  0
    4.4106    1.1939   -1.3773 C   0  0  0  0  0  0  0  0  0  0  0  0
    4.0940    0.0596   -2.1345 C   0  0  0  0  0  0  0  0  0  0  0  0
    4.1254    0.1227   -3.5393 C   0  0  0  0  0  0  0  0  0  0  0  0
    3.8055   -0.9870   -4.3347 C   0  0  0  0  0  0  0  0  0  0  0  0
    3.8331   -0.9221   -5.7381 C   0  0  0  0  0  0  0  0  0  0  0  0
    3.5075   -2.0381   -6.5104 C   0  0  0  0  0  0  0  0  0  0  0  0
    3.1503   -3.2309   -5.8897 C   0  0  0  0  0  0  0  0  0  0  0  0
    3.1195   -3.3084   -4.4967 C   0  0  0  0  0  0  0  0  0  0  0  0
    3.4457   -2.1930   -3.7072 C   0  0  0  0  0  0  0  0  0  0  0  0
    3.4202   -2.2520   -2.3030 C   0  0  0  0  0  0  0  0  0  0  0  0
    3.7420   -1.1404   -1.4833 C   0  0  0  0  0  0  0  0  0  0  0  0
    3.7229   -1.1734   -0.0508 C   0  0  0  0  0  0  0  0  0  0  0  0
    3.3807   -2.4390    0.6507 C   0  0  0  0  0  0  0  0  0  0  0  0
    4.4237   -3.3415    0.9346 C   0  0  0  0  0  0  0  0  0  0  0  0
    4.1698   -4.5482    1.5760 C   0  0  0  0  0  0  0  0  0  0  0  0
    2.8675   -4.8733    1.9440 C   0  0  0  0  0  0  0  0  0  0  0  0
    1.8020   -3.9990    1.6799 C   0  0  0  0  0  0  0  0  0  0  0  0
    0.4938   -4.3448    2.0592 C   0  0  0  0  0  0  0  0  0  0  0  0
   -0.5941   -3.4913    1.8160 C   0  0  0  0  0  0  0  0  0  0  0  0
   -1.9007   -3.8341    2.1980 C   0  0  0  0  0  0  0  0  0  0  0  0
   -2.9882   -2.9761    1.9614 C   0  0  0  0  0  0  0  0  0  0  0  0
   -4.2811   -3.3502    2.3590 C   0  0  0  0  0  0  0  0  0  0  0  0
   -5.3698   -2.5115    2.1398 C   0  0  0  0  0  0  0  0  0  0  0  0
   -5.1790   -1.2840    1.5163 C   0  0  0  0  0  0  0  0  0  0  0  0
   -3.8976   -0.8756    1.0988 C   0  0  0  0  0  0  0  0  0  0  0  0
   -3.7683    0.4476    0.4329 C   0  0  0  0  0  0  0  0  0  0  0  0
   -3.4973    1.6156    1.2169 C   0  0  0  0  0  0  0  0  0  0  0  0
   -3.3187    1.5990    2.6239 C   0  0  0  0  0  0  0  0  0  0  0  0
   -3.0488    2.7599    3.3694 C   0  0  0  0  0  0  0  0  0  0  0  0
   -2.8721    2.7167    4.7627 C   0  0  0  0  0  0  0  0  0  0  0  0
   -2.6042    3.8803    5.4853 C   0  0  0  0  0  0  0  0  0  0  0  0
   -2.5102    5.1012    4.8250 C   0  0  0  0  0  0  0  0  0  0  0  0
   -2.6825    5.1582    3.4412 C   0  0  0  0  0  0  0  0  0  0  0  0
   -2.9519    3.9938    2.7017 C   0  0  0  0  0  0  0  0  0  0  0  0
   -3.1260    4.0281    1.3105 C   0  0  0  0  0  0  0  0  0  0  0  0
   -3.3950    2.8636    0.5688 C   0  0  0  0  0  0  0  0  0  0  0  0
   -3.5627    2.9421   -0.8197 C   0  0  0  0  0  0  0  0  0  0  0  0
   -3.8267    1.8102   -1.6012 C   0  0  0  0  0  0  0  0  0  0  0  0
   -3.9888    1.9378   -2.9929 C   0  0  0  0  0  0  0  0  0  0  0  0
   -4.2485    0.8285   -3.8119 C   0  0  0  0  0  0  0  0  0  0  0  0
   -4.4128    0.9580   -5.2023 C   0  0  0  0  0  0  0  0  0  0  0  0
   -4.6675   -0.1584   -6.0163 C   0  0  0  0  0  0  0  0  0  0  0  0
   -4.8320   -0.0325   -7.4058 C   0  0  0  0  0  0  0  0  0  0  0  0
   -5.0835   -1.1526   -8.1997 C   0  0  0  0  0  0  0  0  0  0  0  0
   -5.1734   -2.4122   -7.6153 C   0  0  0  0  0  0  0  0  0  0  0  0
   -5.0124   -2.5535   -6.2362 C   0  0  0  0  0  0  0  0  0  0  0  0
   -4.7595   -1.4357   -5.4242 C   0  0  0  0  0  0  0  0  0  0  0  0
   -4.5964   -1.5610   -4.0351 C   0  0  0  0  0  0  0  0  0  0  0  0
   -4.3439   -0.4422   -3.2230 C   0  0  0  0  0  0  0  0  0  0  0  0
   -4.1843   -0.5648   -1.8315 C   0  0  0  0  0  0  0  0  0  0  0  0
   -3.9285    0.5455   -0.9875 C   0  0  0  0  0  0  0  0  0  0  0  0
   -2.7791   -1.7313    1.3221 C   0  0  0  0  0  0  0  0  0  0  0  0
   -1.4569   -1.4049    0.9385 C   0  0  0  0  0  0  0  0  0  0  0  0
   -0.3697   -2.2636    1.1770 C   0  0  0  0  0  0  0  0  0  0  0  0
    0.9375   -1.9192    0.7921 C   0  0  0  0  0  0  0  0  0  0  0  0
    2.0457   -2.7658    1.0300 C   0  0  0  0  0  0  0  0  0  0  0  0
    5.4137    5.7086    6.9000 H   0  0  0  0  0  0  0  0  0  0  0  0
    4.7957    3.6557    8.1479 H   0  0  0  0  0  0  0  0  0  0  0  0
    4.2663    1.5778    6.9320 H   0  0  0  0  0  0  0  0  0  0  0  0
    4.0103    0.3565    4.7951 H   0  0  0  0  0  0  0  0  0  0  0  0
    3.7545   -0.8373    2.6906 H   0  0  0  0  0  0  0  0  0  0  0  0
    4.9601    3.2564    0.1932 H   0  0  0  0  0  0  0  0  0  0  0  0
    5.2372    4.4639    2.3032 H   0  0  0  0  0  0  0  0  0  0  0  0
    5.5019    5.6829    4.4377 H   0  0  0  0  0  0  0  0  0  0  0  0
    4.6795    2.1150   -1.8933 H   0  0  0  0  0  0  0  0  0  0  0  0
    4.4022    1.0567   -4.0258 H   0  0  0  0  0  0  0  0  0  0  0  0
    4.1088    0.0023   -6.2405 H   0  0  0  0  0  0  0  0  0  0  0  0
    3.5322   -1.9745   -7.5950 H   0  0  0  0  0  0  0  0  0  0  0  0
    2.8947   -4.1018   -6.4874 H   0  0  0  0  0  0  0  0  0  0  0  0
    2.8369   -4.2487   -4.0281 H   0  0  0  0  0  0  0  0  0  0  0  0
    3.1343   -3.1949   -1.8385 H   0  0  0  0  0  0  0  0  0  0  0  0
    5.4453   -3.0975    0.6468 H   0  0  0  0  0  0  0  0  0  0  0  0
    4.9851   -5.2350    1.7873 H   0  0  0  0  0  0  0  0  0  0  0  0
    2.6896   -5.8233    2.4442 H   0  0  0  0  0  0  0  0  0  0  0  0
    0.3178   -5.2971    2.5564 H   0  0  0  0  0  0  0  0  0  0  0  0
   -2.0736   -4.7880    2.6937 H   0  0  0  0  0  0  0  0  0  0  0  0
   -4.4513   -4.3074    2.8474 H   0  0  0  0  0  0  0  0  0  0  0  0
   -6.3649   -2.8142    2.4546 H   0  0  0  0  0  0  0  0  0  0  0  0
   -6.0359   -0.6334    1.3490 H   0  0  0  0  0  0  0  0  0  0  0  0
   -3.3849    0.6534    3.1604 H   0  0  0  0  0  0  0  0  0  0  0  0
   -2.9412    1.7709    5.2957 H   0  0  0  0  0  0  0  0  0  0  0  0
   -2.4685    3.8308    6.5624 H   0  0  0  0  0  0  0  0  0  0  0  0
   -2.3013    6.0089    5.3850 H   0  0  0  0  0  0  0  0  0  0  0  0
   -2.6032    6.1207    2.9411 H   0  0  0  0  0  0  0  0  0  0  0  0
   -3.0483    4.9837    0.7944 H   0  0  0  0  0  0  0  0  0  0  0  0
   -3.4828    3.9135   -1.3065 H   0  0  0  0  0  0  0  0  0  0  0  0
   -3.9105    2.9230   -3.4502 H   0  0  0  0  0  0  0  0  0  0  0  0
   -4.3420    1.9435   -5.6587 H   0  0  0  0  0  0  0  0  0  0  0  0
   -4.7647    0.9436   -7.8807 H   0  0  0  0  0  0  0  0  0  0  0  0
   -5.2088   -1.0404   -9.2735 H   0  0  0  0  0  0  0  0  0  0  0  0
   -5.3688   -3.2860   -8.2314 H   0  0  0  0  0  0  0  0  0  0  0  0
   -5.0864   -3.5461   -5.7973 H   0  0  0  0  0  0  0  0  0  0  0  0
   -4.6660   -2.5461   -3.5767 H   0  0  0  0  0  0  0  0  0  0  0  0
   -4.2570   -1.5609   -1.3964 H   0  0  0  0  0  0  0  0  0  0  0  0
   -1.2629   -0.4545    0.4420 H   0  0  0  0  0  0  0  0  0  0  0  0
    1.0922   -0.9611    0.2965 H   0  0  0  0  0  0  0  0  0  0  0  0
  1  2  4  0
  2  3  4  0
  3  4  4  0
  4  5  4  0
  5  6  4  0
  6  7  4  0
  7  8  4  0
  8  9  4  0
  9 10  4  0
 10 11  4  0
 11 12  4  0
 12 13  4  0
 13 14  4  0
  9 15  4  0
 15 16  4  0
 16 17  4  0
 17 18  4  0
 18 19  4  0
 19 20  4  0
 20 21  4  0
 21 22  4  0
 22 23  4  0
 23 24  4  0
 24 25  4  0
 25 26  4  0
 26 27  1  0
 27 28  4  0
 28 29  4  0
 29 30  4  0
 30 31  4  0
 31 32  4  0
 32 33  4  0
 33 34  4  0
 34 35  4  0
 35 36  4  0
 36 37  4  0
 37 38  4  0
 38 39  4  0
 39 40  1  0
 40 41  4  0
 41 42  4  0
 42 43  4  0
 43 44  4  0
 44 45  4  0
 45 46  4  0
 46 47  4  0
 47 48  4  0
 48 49  4  0
 49 50  4  0
 50 51  4  0
 51 52  4  0
 52 53  4  0
 53 54  4  0
 54 55  4  0
 55 56  4  0
 56 57  4  0
 57 58  4  0
 58 59  4  0
 59 60  4  0
 60 61  4  0
 61 62  4  0
 62 63  4  0
 63 64  4  0
 64 65  4  0
 39 66  4  0
 66 67  4  0
 67 68  4  0
 68 69  4  0
 69 70  4  0
 14  1  4  0
 25 16  4  0
 70 27  4  0
 13  4  4  0
 23 18  4  0
 70 31  4  0
 11  6  4  0
 68 33  4  0
 26  8  4  0
 66 35  4  0
 65 40  4  0
 50 41  4  0
 65 52  4  0
 48 43  4  0
 63 54  4  0
 61 56  4  0
  1 71  1  0
  2 72  1  0
  3 73  1  0
  5 74  1  0
  7 75  1  0
 10 76  1  0
 12 77  1  0
 14 78  1  0
 15 79  1  0
 17 80  1  0
 19 81  1  0
 20 82  1  0
 21 83  1  0
 22 84  1  0
 24 85  1  0
 28 86  1  0
 29 87  1  0
 30 88  1  0
 32 89  1  0
 34 90  1  0
 36 91  1  0
 37 92  1  0
 38 93  1  0
 42 94  1  0
 44 95  1  0
 45 96  1  0
 46 97  1  0
 47 98  1  0
 49 99  1  0
 51100  1  0
 53101  1  0
 55102  1  0
 57103  1  0
 58104  1  0
 59105  1  0
 60106  1  0
 62107  1  0
 64108  1  0
 67109  1  0
 69110  1  0
M  END
