
     RDKit          3D

110125  0  0  0  0  0  0  0  0999 V2000
    1.1236   -2.5400   -5.0458 C   0  0  0  0  0  0  0  0  0  0  0  0
    1.1795   -3.4702   -4.0189 C   0  0  0  0  0  0  0  0  0  0  0  0
    0.1689   -3.5015   -3.0555 C   0  0  0  0  0  0  0  0  0  0  0  0
   -0.9284   -2.6045   -3.0866 C   0  0  0  0  0  0  0  0  0  0  0  0
   -0.9634   -1.6640   -4.1395 C   0  0  0  0  0  0  0  0  0  0  0  0
    0.0585   -1.6438   -5.1053 C   0  0  0  0  0  0  0  0  0  0  0  0
   -2.0188   -0.7471   -4.2177 C   0  0  0  0  0  0  0  0  0  0  0  0
   -3.0531   -0.7246   -3.2732 C   0  0  0  0  0  0  0  0  0  0  0  0
   -4.0880    0.2211   -3.3866 C   0  0  0  0  0  0  0  0  0  0  0  0
   -5.1387    0.2822   -2.4587 C   0  0  0  0  0  0  0  0  0  0  0  0
   -6.1697    1.2310   -2.5711 C   0  0  0  0  0  0  0  0  0  0  0  0
   -7.2180    1.2890   -1.6370 C   0  0  0  0  0  0  0  0  0  0  0  0
   -8.2488    2.2377   -1.7481 C   0  0  0  0  0  0  0  0  0  0  0  0
   -9.2959    2.2950   -0.8133 C   0  0  0  0  0  0  0  0  0  0  0  0
  -10.3269    3.2430   -0.9234 C   0  0  0  0  0  0  0  0  0  0  0  0
  -11.3602    3.2869    0.0139 C   0  0  0  0  0  0  0  0  0  0  0  0
  -11.3763    2.3845    1.0727 C   0  0  0  0  0  0  0  0  0  0  0  0
  -10.3592    1.4367    1.1958 C   0  0  0  0  0  0  0  0  0  0  0  0
   -9.3124    1.3798    0.2606 C   0  0  0  0  0  0  0  0  0  0  0  0
   -8.2815    0.4321    0.3706 C   0  0  0  0  0  0  0  0  0  0  0  0
   -7.2347    0.3758   -0.5652 C   0  0  0  0  0  0  0  0  0  0  0  0
   -6.2032   -0.5717   -0.4554 C   0  0  0  0  0  0  0  0  0  0  0  0
   -5.1557   -0.6281   -1.3907 C   0  0  0  0  0  0  0  0  0  0  0  0
   -4.1213   -1.5742   -1.2824 C   0  0  0  0  0  0  0  0  0  0  0  0
   -3.0508   -1.6500   -2.2094 C   0  0  0  0  0  0  0  0  0  0  0  0
   -1.9825   -2.6001   -2.1172 C   0  0  0  0  0  0  0  0  0  0  0  0
   -1.9699   -3.5915   -1.0095 C   0  0  0  0  0  0  0  0  0  0  0  0
   -2.5947   -4.8348   -1.2249 C   0  0  0  0  0  0  0  0  0  0  0  0
   -2.6177   -5.8048   -0.2296 C   0  0  0  0  0  0  0  0  0  0  0  0
   -2.0162   -5.5473    0.9987 C   0  0  0  0  0  0  0  0  0  0  0  0
   -1.3837   -4.3201    1.2507 C   0  0  0  0  0  0  0  0  0  0  0  0
   -0.7811   -4.0791    2.4967 C   0  0  0  0  0  0  0  0  0  0  0  0
   -0.1398   -2.8637    2.7826 C   0  0  0  0  0  0  0  0  0  0  0  0
    0.4631   -2.6242    4.0271 C   0  0  0  0  0  0  0  0  0  0  0  0
    1.1068   -1.4087    4.3128 C   0  0  0  0  0  0  0  0  0  0  0  0
    1.7000   -1.2047    5.5678 C   0  0  0  0  0  0  0  0  0  0  0  0
    2.3430   -0.0084    5.8706 C   0  0  0  0  0  0  0  0  0  0  0  0
    2.4009    1.0028    4.9187 C   0  0  0  0  0  0  0  0  0  0  0  0
    1.8172    0.8354    3.6481 C   0  0  0  0  0  0  0  0  0  0  0  0
    1.9182    1.9592    2.6800 C   0  0  0  0  0  0  0  0  0  0  0  0
    3.0448    2.0406    1.7984 C   0  0  0  0  0  0  0  0  0  0  0  0
    4.0873    1.0800    1.7583 C   0  0  0  0  0  0  0  0  0  0  0  0
    5.1842    1.1834    0.8844 C   0  0  0  0  0  0  0  0  0  0  0  0
    6.2004    0.2129    0.8590 C   0  0  0  0  0  0  0  0  0  0  0  0
    7.2968    0.3207   -0.0131 C   0  0  0  0  0  0  0  0  0  0  0  0
    8.3108   -0.6517   -0.0402 C   0  0  0  0  0  0  0  0  0  0  0  0
    9.4075   -0.5428   -0.9114 C   0  0  0  0  0  0  0  0  0  0  0  0
   10.4211   -1.5151   -0.9398 C   0  0  0  0  0  0  0  0  0  0  0  0
   11.5051   -1.3919   -1.8103 C   0  0  0  0  0  0  0  0  0  0  0  0
   11.5894   -0.2960   -2.6634 C   0  0  0  0  0  0  0  0  0  0  0  0
   10.5899    0.6780   -2.6476 C   0  0  0  0  0  0  0  0  0  0  0  0
    9.4927    0.5682   -1.7771 C   0  0  0  0  0  0  0  0  0  0  0  0
    8.4780    1.5393   -1.7497 C   0  0  0  0  0  0  0  0  0  0  0  0
    7.3800    1.4279   -0.8794 C   0  0  0  0  0  0  0  0  0  0  0  0
    6.3613    2.3954   -0.8549 C   0  0  0  0  0  0  0  0  0  0  0  0
    5.2633    2.2827    0.0156 C   0  0  0  0  0  0  0  0  0  0  0  0
    4.2385    3.2406    0.0378 C   0  0  0  0  0  0  0  0  0  0  0  0
    3.1391    3.1298    0.9080 C   0  0  0  0  0  0  0  0  0  0  0  0
    2.1327    4.1037    0.8903 C   0  0  0  0  0  0  0  0  0  0  0  0
    1.0189    4.0338    1.7357 C   0  0  0  0  0  0  0  0  0  0  0  0
    0.0281    5.0297    1.6760 C   0  0  0  0  0  0  0  0  0  0  0  0
   -1.0918    4.9814    2.5032 C   0  0  0  0  0  0  0  0  0  0  0  0
   -1.2339    3.9367    3.4037 C   0  0  0  0  0  0  0  0  0  0  0  0
   -0.2551    2.9432    3.4739 C   0  0  0  0  0  0  0  0  0  0  0  0
    0.8949    2.9605    2.6453 C   0  0  0  0  0  0  0  0  0  0  0  0
    1.1571   -0.3886    3.3334 C   0  0  0  0  0  0  0  0  0  0  0  0
    0.5423   -0.6466    2.0854 C   0  0  0  0  0  0  0  0  0  0  0  0
   -0.1003   -1.8640    1.8002 C   0  0  0  0  0  0  0  0  0  0  0  0
   -0.7036   -2.1037    0.5535 C   0  0  0  0  0  0  0  0  0  0  0  0
   -1.3527   -3.3231    0.2474 C   0  0  0  0  0  0  0  0  0  0  0  0
    1.9076   -2.5074   -5.7973 H   0  0  0  0  0  0  0  0  0  0  0  0
    2.0080   -4.1710   -3.9587 H   0  0  0  0  0  0  0  0  0  0  0  0
    0.2532   -4.2428   -2.2629 H   0  0  0  0  0  0  0  0  0  0  0  0
    0.0343   -0.9191   -5.9165 H   0  0  0  0  0  0  0  0  0  0  0  0
   -2.0325   -0.0268   -5.0349 H   0  0  0  0  0  0  0  0  0  0  0  0
   -4.0745    0.9287   -4.2143 H   0  0  0  0  0  0  0  0  0  0  0  0
   -6.1555    1.9368   -3.3996 H   0  0  0  0  0  0  0  0  0  0  0  0
   -8.2361    2.9440   -2.5761 H   0  0  0  0  0  0  0  0  0  0  0  0
  -10.3321    3.9573   -1.7438 H   0  0  0  0  0  0  0  0  0  0  0  0
  -12.1513    4.0258   -0.0838 H   0  0  0  0  0  0  0  0  0  0  0  0
  -12.1799    2.4169    1.8038 H   0  0  0  0  0  0  0  0  0  0  0  0
  -10.3889    0.7398    2.0304 H   0  0  0  0  0  0  0  0  0  0  0  0
   -8.2941   -0.2737    1.1993 H   0  0  0  0  0  0  0  0  0  0  0  0
   -6.2142   -1.2777    0.3734 H   0  0  0  0  0  0  0  0  0  0  0  0
   -4.1519   -2.2688   -0.4439 H   0  0  0  0  0  0  0  0  0  0  0  0
   -3.0678   -5.0444   -2.1829 H   0  0  0  0  0  0  0  0  0  0  0  0
   -3.1029   -6.7604   -0.4108 H   0  0  0  0  0  0  0  0  0  0  0  0
   -2.0448   -6.3194    1.7649 H   0  0  0  0  0  0  0  0  0  0  0  0
   -0.8102   -4.8535    3.2611 H   0  0  0  0  0  0  0  0  0  0  0  0
    0.4307   -3.4014    4.7889 H   0  0  0  0  0  0  0  0  0  0  0  0
    1.6651   -1.9843    6.3262 H   0  0  0  0  0  0  0  0  0  0  0  0
    2.7976    0.1355    6.8470 H   0  0  0  0  0  0  0  0  0  0  0  0
    2.9055    1.9359    5.1644 H   0  0  0  0  0  0  0  0  0  0  0  0
    4.0439    0.2175    2.4222 H   0  0  0  0  0  0  0  0  0  0  0  0
    6.1334   -0.6432    1.5284 H   0  0  0  0  0  0  0  0  0  0  0  0
    8.2451   -1.5086    0.6280 H   0  0  0  0  0  0  0  0  0  0  0  0
   10.3718   -2.3788   -0.2805 H   0  0  0  0  0  0  0  0  0  0  0  0
   12.2829   -2.1510   -1.8206 H   0  0  0  0  0  0  0  0  0  0  0  0
   12.4327   -0.1978   -3.3421 H   0  0  0  0  0  0  0  0  0  0  0  0
   10.6737    1.5270   -3.3224 H   0  0  0  0  0  0  0  0  0  0  0  0
    8.5439    2.3960   -2.4179 H   0  0  0  0  0  0  0  0  0  0  0  0
    6.4221    3.2498   -1.5266 H   0  0  0  0  0  0  0  0  0  0  0  0
    4.2975    4.0906   -0.6405 H   0  0  0  0  0  0  0  0  0  0  0  0
    2.2162    4.9389    0.1958 H   0  0  0  0  0  0  0  0  0  0  0  0
    0.1208    5.8568    0.9751 H   0  0  0  0  0  0  0  0  0  0  0  0
   -1.8513    5.7556    2.4405 H   0  0  0  0  0  0  0  0  0  0  0  0
   -2.1051    3.8853    4.0512 H   0  0  0  0  0  0  0  0  0  0  0  0
   -0.4073    2.1378    4.1903 H   0  0  0  0  0  0  0  0  0  0  0  0
    0.5622    0.1194    1.3107 H   0  0  0  0  0  0  0  0  0  0  0  0
   -0.6640   -1.3156   -0.1979 H   0  0  0  0  0  0  0  0  0  0  0  0
  1  2  4  0
  2  3  4  0
  3  4  4  0
  4  5  4  0
  5  6  4  0
  5  7  4  0
  7  8  4  0
  8  9  4  0
  9 10  4  0
 10 11  4  0
 11 12  4  0
 12 13  4  0
 13 14  4  0
 14 15  4  0
 15 16  4  0
 16 17  4  0
 17 18  4  0
 18 19  4  0
 19 20  4  0
 20 21  4  0
 21 22  4  0
 22 23  4  0
 23 24  4  0
 24 25  4  0
 25 26  4  0
 26 27  1  0
 27 28  4  0
 28 29  4  0
 29 30  4  0
 30 31  4  0
 31 32  4  0
 32 33  4  0
 33 34  4  0
 34 35  4  0
 35 36  4  0
 36 37  4  0
 37 38  4  0
 38 39  4  0
 39 40  1  0
 40 41  4  0
 41 42  4  0
 42 43  4  0
 43 44  4  0
 44 45  4  0
 45 46  4  0
 46 47  4  0
 47 48  4  0
 48 49  4  0
 49 50  4  0
 50 51  4  0
 51 52  4  0
 52 53  4  0
 53 54  4  0
 54 55  4  0
 55 56  4  0
 56 57  4  0
 57 58  4  0
 58 59  4  0
 59 60  4  0
 60 61  4  0
 61 62  4  0
 62 63  4  0
 63 64  4  0
 64 65  4  0
 39 66  4  0
 66 67  4  0
 67 68  4  0
 68 69  4  0
 69 70  4  0
  6  1  4  0
 25  8  4  0
 70 27  4  0
 26  4  4  0
 70 31  4  0
 23 10  4  0
 68 33  4  0
 21 12  4  0
 66 35  4  0
 19 14  4  0
 65 40  4  0
 58 41  4  0
 65 60  4  0
 56 43  4  0
 54 45  4  0
 52 47  4  0
  1 71  1  0
  2 72  1  0
  3 73  1  0
  6 74  1  0
  7 75  1  0
  9 76  1  0
 11 77  1  0
 13 78  1  0
 15 79  1  0
 16 80  1  0
 17 81  1  0
 18 82  1  0
 20 83  1  0
 22 84  1  0
 24 85  1  0
 28 86  1  0
 29 87  1  0
 30 88  1  0
 32 89  1  0
 34 90  1  0
 36 91  1  0
 37 92  1  0
 38 93  1  0
 42 94  1  0
 44 95  1  0
 46 96  1  0
 48 97  1  0
 49 98  1  0
 50 99  1  0
 51100  1  0
 53101  1  0
 55102  1  0
 57103  1  0
 59104  1  0
 61105  1  0
 62106  1  0
 63107  1  0
 64108  1  0
 67109  1  0
 69110  1  0
M  END
