
     RDKit          3D

110125  0  0  0  0  0  0  0  0999 V2000
   -2.7627   -8.7694    2.7225 C   0  0  0  0  0  0  0  0  0  0  0  0
   -2.8417   -8.0800    1.5115 C   0  0  0  0  0  0  0  0  0  0  0  0
   -2.9665   -6.6809    1.4875 C   0  0  0  0  0  0  0  0  0  0  0  0
   -3.0472   -5.9723    0.2772 C   0  0  0  0  0  0  0  0  0  0  0  0
   -3.1721   -4.5726    0.2539 C   0  0  0  0  0  0  0  0  0  0  0  0
   -3.2528   -3.8634   -0.9565 C   0  0  0  0  0  0  0  0  0  0  0  0
   -3.3775   -2.4639   -0.9803 C   0  0  0  0  0  0  0  0  0  0  0  0
   -3.4578   -1.7542   -2.1904 C   0  0  0  0  0  0  0  0  0  0  0  0
   -3.5813   -0.3542   -2.2129 C   0  0  0  0  0  0  0  0  0  0  0  0
   -3.6593    0.3576   -3.4200 C   0  0  0  0  0  0  0  0  0  0  0  0
   -3.7806    1.7574   -3.4457 C   0  0  0  0  0  0  0  0  0  0  0  0
   -3.8517    2.4356   -4.6719 C   0  0  0  0  0  0  0  0  0  0  0  0
   -3.9693    3.8214   -4.7185 C   0  0  0  0  0  0  0  0  0  0  0  0
   -4.0156    4.5496   -3.5352 C   0  0  0  0  0  0  0  0  0  0  0  0
   -3.9445    3.9056   -2.2860 C   0  0  0  0  0  0  0  0  0  0  0  0
   -3.9843    4.7432   -1.0679 C   0  0  0  0  0  0  0  0  0  0  0  0
   -5.2410    5.0817   -0.5329 C   0  0  0  0  0  0  0  0  0  0  0  0
   -5.3423    5.8681    0.6095 C   0  0  0  0  0  0  0  0  0  0  0  0
   -4.1875    6.3308    1.2346 C   0  0  0  0  0  0  0  0  0  0  0  0
   -2.9165    6.0158    0.7294 C   0  0  0  0  0  0  0  0  0  0  0  0
   -1.7604    6.4908    1.3730 C   0  0  0  0  0  0  0  0  0  0  0  0
   -0.4740    6.1935    0.8943 C   0  0  0  0  0  0  0  0  0  0  0  0
    0.6822    6.6643    1.5372 C   0  0  0  0  0  0  0  0  0  0  0  0
    1.9689    6.3652    1.0562 C   0  0  0  0  0  0  0  0  0  0  0  0
    3.1032    6.8493    1.7255 C   0  0  0  0  0  0  0  0  0  0  0  0
    4.3847    6.5638    1.2629 C   0  0  0  0  0  0  0  0  0  0  0  0
    4.5491    5.7896    0.1197 C   0  0  0  0  0  0  0  0  0  0  0  0
    3.4362    5.2853   -0.5784 C   0  0  0  0  0  0  0  0  0  0  0  0
    3.6823    4.4767   -1.7920 C   0  0  0  0  0  0  0  0  0  0  0  0
    3.7509    3.0530   -1.7622 C   0  0  0  0  0  0  0  0  0  0  0  0
    3.5908    2.2879   -0.5825 C   0  0  0  0  0  0  0  0  0  0  0  0
    3.6537    0.8834   -0.5804 C   0  0  0  0  0  0  0  0  0  0  0  0
    3.4848    0.1421    0.6014 C   0  0  0  0  0  0  0  0  0  0  0  0
    3.5496   -1.2616    0.6029 C   0  0  0  0  0  0  0  0  0  0  0  0
    3.3812   -2.0030    1.7846 C   0  0  0  0  0  0  0  0  0  0  0  0
    3.4473   -3.4066    1.7863 C   0  0  0  0  0  0  0  0  0  0  0  0
    3.2793   -4.1472    2.9688 C   0  0  0  0  0  0  0  0  0  0  0  0
    3.3455   -5.5505    2.9706 C   0  0  0  0  0  0  0  0  0  0  0  0
    3.1780   -6.2915    4.1524 C   0  0  0  0  0  0  0  0  0  0  0  0
    3.2467   -7.6854    4.1372 C   0  0  0  0  0  0  0  0  0  0  0  0
    3.4836   -8.3562    2.9414 C   0  0  0  0  0  0  0  0  0  0  0  0
    3.6522   -7.6341    1.7591 C   0  0  0  0  0  0  0  0  0  0  0  0
    3.5858   -6.2307    1.7580 C   0  0  0  0  0  0  0  0  0  0  0  0
    3.7534   -5.4894    0.5765 C   0  0  0  0  0  0  0  0  0  0  0  0
    3.6870   -4.0857    0.5759 C   0  0  0  0  0  0  0  0  0  0  0  0
    3.8545   -3.3440   -0.6060 C   0  0  0  0  0  0  0  0  0  0  0  0
    3.7886   -1.9403   -0.6072 C   0  0  0  0  0  0  0  0  0  0  0  0
    3.9551   -1.1980   -1.7886 C   0  0  0  0  0  0  0  0  0  0  0  0
    3.8895    0.2061   -1.7885 C   0  0  0  0  0  0  0  0  0  0  0  0
    4.0528    0.9502   -2.9673 C   0  0  0  0  0  0  0  0  0  0  0  0
    3.9861    2.3539   -2.9701 C   0  0  0  0  0  0  0  0  0  0  0  0
    4.1501    3.0640   -4.1690 C   0  0  0  0  0  0  0  0  0  0  0  0
    4.0840    4.4538   -4.1932 C   0  0  0  0  0  0  0  0  0  0  0  0
    3.8521    5.1533   -3.0144 C   0  0  0  0  0  0  0  0  0  0  0  0
    2.1217    5.5734   -0.1068 C   0  0  0  0  0  0  0  0  0  0  0  0
    0.9458    5.1068   -0.7401 C   0  0  0  0  0  0  0  0  0  0  0  0
   -0.3401    5.4041   -0.2563 C   0  0  0  0  0  0  0  0  0  0  0  0
   -1.4951    4.9275   -0.8998 C   0  0  0  0  0  0  0  0  0  0  0  0
   -2.7990    5.2162   -0.4320 C   0  0  0  0  0  0  0  0  0  0  0  0
   -3.8279    2.4856   -2.2332 C   0  0  0  0  0  0  0  0  0  0  0  0
   -3.7495    1.7526   -1.0251 C   0  0  0  0  0  0  0  0  0  0  0  0
   -3.6266    0.3522   -0.9993 C   0  0  0  0  0  0  0  0  0  0  0  0
   -3.5465   -0.3568    0.2115 C   0  0  0  0  0  0  0  0  0  0  0  0
   -3.4224   -1.7562    0.2358 C   0  0  0  0  0  0  0  0  0  0  0  0
   -3.3418   -2.4650    1.4464 C   0  0  0  0  0  0  0  0  0  0  0  0
   -3.2172   -3.8644    1.4706 C   0  0  0  0  0  0  0  0  0  0  0  0
   -3.1365   -4.5723    2.6819 C   0  0  0  0  0  0  0  0  0  0  0  0
   -3.0118   -5.9713    2.7063 C   0  0  0  0  0  0  0  0  0  0  0  0
   -2.9312   -6.6794    3.9168 C   0  0  0  0  0  0  0  0  0  0  0  0
   -2.8074   -8.0696    3.9242 C   0  0  0  0  0  0  0  0  0  0  0  0
   -2.6664   -9.8520    2.7259 H   0  0  0  0  0  0  0  0  0  0  0  0
   -2.8051   -8.6449    0.5827 H   0  0  0  0  0  0  0  0  0  0  0  0
   -3.0120   -6.5204   -0.6626 H   0  0  0  0  0  0  0  0  0  0  0  0
   -3.2176   -4.4107   -1.8969 H   0  0  0  0  0  0  0  0  0  0  0  0
   -3.4227   -2.3007   -3.1312 H   0  0  0  0  0  0  0  0  0  0  0  0
   -3.6232   -0.1907   -4.3600 H   0  0  0  0  0  0  0  0  0  0  0  0
   -3.8137    1.8837   -5.6089 H   0  0  0  0  0  0  0  0  0  0  0  0
   -4.0202    4.3331   -5.6758 H   0  0  0  0  0  0  0  0  0  0  0  0
   -4.0997    5.6340   -3.5824 H   0  0  0  0  0  0  0  0  0  0  0  0
   -6.1498    4.7235   -1.0135 H   0  0  0  0  0  0  0  0  0  0  0  0
   -6.3198    6.1206    1.0121 H   0  0  0  0  0  0  0  0  0  0  0  0
   -4.2883    6.9452    2.1271 H   0  0  0  0  0  0  0  0  0  0  0  0
   -1.8626    7.1049    2.2661 H   0  0  0  0  0  0  0  0  0  0  0  0
    0.5772    7.2764    2.4315 H   0  0  0  0  0  0  0  0  0  0  0  0
    2.9958    7.4579    2.6211 H   0  0  0  0  0  0  0  0  0  0  0  0
    5.2538    6.9453    1.7921 H   0  0  0  0  0  0  0  0  0  0  0  0
    5.5554    5.5717   -0.2341 H   0  0  0  0  0  0  0  0  0  0  0  0
    3.4071    2.7975    0.3624 H   0  0  0  0  0  0  0  0  0  0  0  0
    3.2983    0.6682    1.5363 H   0  0  0  0  0  0  0  0  0  0  0  0
    3.1948   -1.4774    2.7196 H   0  0  0  0  0  0  0  0  0  0  0  0
    3.0939   -3.6220    3.9039 H   0  0  0  0  0  0  0  0  0  0  0  0
    2.9920   -5.7856    5.0971 H   0  0  0  0  0  0  0  0  0  0  0  0
    3.1152   -8.2458    5.0591 H   0  0  0  0  0  0  0  0  0  0  0  0
    3.5376   -9.4416    2.9273 H   0  0  0  0  0  0  0  0  0  0  0  0
    3.8365   -8.1766    0.8345 H   0  0  0  0  0  0  0  0  0  0  0  0
    3.9385   -6.0149   -0.3587 H   0  0  0  0  0  0  0  0  0  0  0  0
    4.0394   -3.8690   -1.5415 H   0  0  0  0  0  0  0  0  0  0  0  0
    4.1384   -1.7221   -2.7249 H   0  0  0  0  0  0  0  0  0  0  0  0
    4.2344    0.4244   -3.9033 H   0  0  0  0  0  0  0  0  0  0  0  0
    4.3306    2.5345   -5.1024 H   0  0  0  0  0  0  0  0  0  0  0  0
    4.2097    4.9902   -5.1298 H   0  0  0  0  0  0  0  0  0  0  0  0
    3.7956    6.2402   -3.0448 H   0  0  0  0  0  0  0  0  0  0  0  0
    1.0295    4.4908   -1.6349 H   0  0  0  0  0  0  0  0  0  0  0  0
   -1.3704    4.3107   -1.7894 H   0  0  0  0  0  0  0  0  0  0  0  0
   -3.7808    2.2854   -0.0755 H   0  0  0  0  0  0  0  0  0  0  0  0
   -3.5803    0.1917    1.1514 H   0  0  0  0  0  0  0  0  0  0  0  0
   -3.3763   -1.9170    2.3865 H   0  0  0  0  0  0  0  0  0  0  0  0
   -3.1713   -4.0248    3.6220 H   0  0  0  0  0  0  0  0  0  0  0  0
   -2.9643   -6.1503    4.8666 H   0  0  0  0  0  0  0  0  0  0  0  0
   -2.7461   -8.6044    4.8685 H   0  0  0  0  0  0  0  0  0  0  0  0
  1  2  4  0
  2  3  4  0
  3  4  4  0
  4  5  4  0
  5  6  4  0
  6  7  4  0
  7  8  4  0
  8  9  4  0
  9 10  4  0
 10 11  4  0
 11 12  4  0
 12 13  4  0
 13 14  4  0
 14 15  4  0
 15 16  1  0
 16 17  4  0
 17 18  4  0
 18 19  4  0
 19 20  4  0
 20 21  4  0
 21 22  4  0
 22 23  4  0
 23 24  4  0
 24 25  4  0
 25 26  4  0
 26 27  4  0
 27 28  4  0
 28 29  1  0
 29 30  4  0
 30 31  4  0
 31 32  4  0
 32 33  4  0
 33 34  4  0
 34 35  4  0
 35 36  4  0
 36 37  4  0
 37 38  4  0
 38 39  4  0
 39 40  4  0
 40 41  4  0
 41 42  4  0
 42 43  4  0
 43 44  4  0
 44 45  4  0
 45 46  4  0
 46 47  4  0
 47 48  4  0
 48 49  4  0
 49 50  4  0
 50 51  4  0
 51 52  4  0
 52 53  4  0
 53 54  4  0
 28 55  4  0
 55 56  4  0
 56 57  4  0
 57 58  4  0
 58 59  4  0
 15 60  4  0
 60 61  4  0
 61 62  4  0
 62 63  4  0
 63 64  4  0
 64 65  4  0
 65 66  4  0
 66 67  4  0
 67 68  4  0
 68 69  4  0
 69 70  4  0
 70  1  4  0
 68  3  4  0
 66  5  4  0
 64  7  4  0
 62  9  4  0
 60 11  4  0
 59 16  4  0
 59 20  4  0
 57 22  4  0
 55 24  4  0
 54 29  4  0
 51 30  4  0
 49 32  4  0
 47 34  4  0
 45 36  4  0
 43 38  4  0
  1 71  1  0
  2 72  1  0
  4 73  1  0
  6 74  1  0
  8 75  1  0
 10 76  1  0
 12 77  1  0
 13 78  1  0
 14 79  1  0
 17 80  1  0
 18 81  1  0
 19 82  1  0
 21 83  1  0
 23 84  1  0
 25 85  1  0
 26 86  1  0
 27 87  1  0
 31 88  1  0
 33 89  1  0
 35 90  1  0
 37 91  1  0
 39 92  1  0
 40 93  1  0
 41 94  1  0
 42 95  1  0
 44 96  1  0
 46 97  1  0
 48 98  1  0
 50 99  1  0
 52100  1  0
 53101  1  0
 54102  1  0
 56103  1  0
 58104  1  0
 61105  1  0
 63106  1  0
 65107  1  0
 67108  1  0
 69109  1  0
 70110  1  0
M  END
