
     RDKit          3D

 86 97  0  0  0  0  0  0  0  0999 V2000
    4.3897   -4.6145   -1.8672 C   0  0  0  0  0  0  0  0  0  0  0  0
    4.2558   -4.5899   -0.4872 C   0  0  0  0  0  0  0  0  0  0  0  0
    4.0751   -3.3711    0.1707 C   0  0  0  0  0  0  0  0  0  0  0  0
    4.0245   -2.1382   -0.5278 C   0  0  0  0  0  0  0  0  0  0  0  0
    4.1555   -2.1884   -1.9332 C   0  0  0  0  0  0  0  0  0  0  0  0
    4.3380   -3.4213   -2.5845 C   0  0  0  0  0  0  0  0  0  0  0  0
    4.1011   -1.0050   -2.6793 C   0  0  0  0  0  0  0  0  0  0  0  0
    3.9156    0.2449   -2.0752 C   0  0  0  0  0  0  0  0  0  0  0  0
    3.8572    1.4051   -2.8685 C   0  0  0  0  0  0  0  0  0  0  0  0
    3.6647    2.6753   -2.3059 C   0  0  0  0  0  0  0  0  0  0  0  0
    3.5997    3.8329   -3.1002 C   0  0  0  0  0  0  0  0  0  0  0  0
    3.4021    5.0866   -2.5195 C   0  0  0  0  0  0  0  0  0  0  0  0
    3.2674    5.1983   -1.1393 C   0  0  0  0  0  0  0  0  0  0  0  0
    3.3313    4.0564   -0.3395 C   0  0  0  0  0  0  0  0  0  0  0  0
    3.5307    2.7881   -0.9106 C   0  0  0  0  0  0  0  0  0  0  0  0
    3.5970    1.6265   -0.1215 C   0  0  0  0  0  0  0  0  0  0  0  0
    3.7864    0.3338   -0.6735 C   0  0  0  0  0  0  0  0  0  0  0  0
    3.8462   -0.8666    0.1074 C   0  0  0  0  0  0  0  0  0  0  0  0
    3.7351   -0.7923    1.5888 C   0  0  0  0  0  0  0  0  0  0  0  0
    4.9251   -0.7300    2.3397 C   0  0  0  0  0  0  0  0  0  0  0  0
    4.8917   -0.6614    3.7277 C   0  0  0  0  0  0  0  0  0  0  0  0
    3.6667   -0.6497    4.3885 C   0  0  0  0  0  0  0  0  0  0  0  0
    2.4595   -0.7039    3.6750 C   0  0  0  0  0  0  0  0  0  0  0  0
    1.2329   -0.6793    4.3603 C   0  0  0  0  0  0  0  0  0  0  0  0
    0.0063   -0.7148    3.6781 C   0  0  0  0  0  0  0  0  0  0  0  0
   -1.2198   -0.6726    4.3609 C   0  0  0  0  0  0  0  0  0  0  0  0
   -2.4469   -0.6889    3.6761 C   0  0  0  0  0  0  0  0  0  0  0  0
   -3.6539   -0.6318    4.3897 C   0  0  0  0  0  0  0  0  0  0  0  0
   -4.8790   -0.6364    3.7288 C   0  0  0  0  0  0  0  0  0  0  0  0
   -4.9131   -0.6997    2.3406 C   0  0  0  0  0  0  0  0  0  0  0  0
   -3.7233   -0.7628    1.5899 C   0  0  0  0  0  0  0  0  0  0  0  0
   -3.8327   -0.8292    0.1083 C   0  0  0  0  0  0  0  0  0  0  0  0
   -3.7968    0.3774   -0.6640 C   0  0  0  0  0  0  0  0  0  0  0  0
   -3.6421    1.6703   -0.1021 C   0  0  0  0  0  0  0  0  0  0  0  0
   -3.5998    2.8384   -0.8832 C   0  0  0  0  0  0  0  0  0  0  0  0
   -3.4360    4.1074   -0.3026 C   0  0  0  0  0  0  0  0  0  0  0  0
   -3.3977    5.2558   -1.0948 C   0  0  0  0  0  0  0  0  0  0  0  0
   -3.5220    5.1500   -2.4765 C   0  0  0  0  0  0  0  0  0  0  0  0
   -3.6830    3.8956   -3.0666 C   0  0  0  0  0  0  0  0  0  0  0  0
   -3.7225    2.7317   -2.2801 C   0  0  0  0  0  0  0  0  0  0  0  0
   -3.8794    1.4611   -2.8524 C   0  0  0  0  0  0  0  0  0  0  0  0
   -3.9150    0.2948   -2.0671 C   0  0  0  0  0  0  0  0  0  0  0  0
   -4.0664   -0.9548   -2.6808 C   0  0  0  0  0  0  0  0  0  0  0  0
   -4.0981   -2.1439   -1.9429 C   0  0  0  0  0  0  0  0  0  0  0  0
   -4.2451   -3.3763   -2.6036 C   0  0  0  0  0  0  0  0  0  0  0  0
   -4.2699   -4.5749   -1.8941 C   0  0  0  0  0  0  0  0  0  0  0  0
   -4.1482   -4.5559   -0.5130 C   0  0  0  0  0  0  0  0  0  0  0  0
   -4.0055   -3.3375    0.1545 C   0  0  0  0  0  0  0  0  0  0  0  0
   -3.9785   -2.0999   -0.5363 C   0  0  0  0  0  0  0  0  0  0  0  0
   -2.4658   -0.7576    2.2628 C   0  0  0  0  0  0  0  0  0  0  0  0
   -1.2210   -0.8117    1.5923 C   0  0  0  0  0  0  0  0  0  0  0  0
    0.0060   -0.7871    2.2779 C   0  0  0  0  0  0  0  0  0  0  0  0
    1.2325   -0.8248    1.5920 C   0  0  0  0  0  0  0  0  0  0  0  0
    2.4779   -0.7776    2.2619 C   0  0  0  0  0  0  0  0  0  0  0  0
    4.5297   -5.5584   -2.3868 H   0  0  0  0  0  0  0  0  0  0  0  0
    4.2870   -5.5145    0.0831 H   0  0  0  0  0  0  0  0  0  0  0  0
    3.9654   -3.3959    1.2534 H   0  0  0  0  0  0  0  0  0  0  0  0
    4.4407   -3.4614   -3.6671 H   0  0  0  0  0  0  0  0  0  0  0  0
    4.2022   -1.0593   -3.7627 H   0  0  0  0  0  0  0  0  0  0  0  0
    3.9597    1.3185   -3.9491 H   0  0  0  0  0  0  0  0  0  0  0  0
    3.7015    3.7647   -4.1810 H   0  0  0  0  0  0  0  0  0  0  0  0
    3.3528    5.9735   -3.1455 H   0  0  0  0  0  0  0  0  0  0  0  0
    3.1121    6.1724   -0.6831 H   0  0  0  0  0  0  0  0  0  0  0  0
    3.2231    4.1620    0.7379 H   0  0  0  0  0  0  0  0  0  0  0  0
    3.4867    1.7367    0.9563 H   0  0  0  0  0  0  0  0  0  0  0  0
    5.8880   -0.7368    1.8310 H   0  0  0  0  0  0  0  0  0  0  0  0
    5.8185   -0.6158    4.2935 H   0  0  0  0  0  0  0  0  0  0  0  0
    3.6618   -0.5936    5.4753 H   0  0  0  0  0  0  0  0  0  0  0  0
    1.2312   -0.6219    5.4472 H   0  0  0  0  0  0  0  0  0  0  0  0
   -1.2175   -0.6177    5.4481 H   0  0  0  0  0  0  0  0  0  0  0  0
   -3.6491   -0.5802    5.4768 H   0  0  0  0  0  0  0  0  0  0  0  0
   -5.8054   -0.5893    4.2951 H   0  0  0  0  0  0  0  0  0  0  0  0
   -5.8761   -0.7012    1.8320 H   0  0  0  0  0  0  0  0  0  0  0  0
   -3.5446    1.7763    0.9775 H   0  0  0  0  0  0  0  0  0  0  0  0
   -3.3359    4.2084    0.7760 H   0  0  0  0  0  0  0  0  0  0  0  0
   -3.2704    6.2307   -0.6317 H   0  0  0  0  0  0  0  0  0  0  0  0
   -3.4924    6.0421   -3.0962 H   0  0  0  0  0  0  0  0  0  0  0  0
   -3.7768    3.8321   -4.1483 H   0  0  0  0  0  0  0  0  0  0  0  0
   -3.9729    1.3794   -3.9342 H   0  0  0  0  0  0  0  0  0  0  0  0
   -4.1585   -1.0042   -3.7653 H   0  0  0  0  0  0  0  0  0  0  0  0
   -4.3385   -3.4120   -3.6872 H   0  0  0  0  0  0  0  0  0  0  0  0
   -4.3790   -5.5188   -2.4208 H   0  0  0  0  0  0  0  0  0  0  0  0
   -4.1593   -5.4844    0.0512 H   0  0  0  0  0  0  0  0  0  0  0  0
   -3.9051   -3.3667    1.2379 H   0  0  0  0  0  0  0  0  0  0  0  0
   -1.2010   -0.8648    0.5041 H   0  0  0  0  0  0  0  0  0  0  0  0
    1.2119   -0.8807    0.5040 H   0  0  0  0  0  0  0  0  0  0  0  0
  1  2  4  0
  2  3  4  0
  3  4  4  0
  4  5  4  0
  5  6  4  0
  5  7  4  0
  7  8  4  0
  8  9  4  0
  9 10  4  0
 10 11  4  0
 11 12  4  0
 12 13  4  0
 13 14  4  0
 14 15  4  0
 15 16  4  0
 16 17  4  0
 17 18  4  0
 18 19  1  0
 19 20  4  0
 20 21  4  0
 21 22  4  0
 22 23  4  0
 23 24  4  0
 24 25  4  0
 25 26  4  0
 26 27  4  0
 27 28  4  0
 28 29  4  0
 29 30  4  0
 30 31  4  0
 31 32  1  0
 32 33  4  0
 33 34  4  0
 34 35  4  0
 35 36  4  0
 36 37  4  0
 37 38  4  0
 38 39  4  0
 39 40  4  0
 40 41  4  0
 41 42  4  0
 42 43  4  0
 43 44  4  0
 44 45  4  0
 45 46  4  0
 46 47  4  0
 47 48  4  0
 48 49  4  0
 31 50  4  0
 50 51  4  0
 51 52  4  0
 52 53  4  0
 53 54  4  0
  6  1  4  0
 17  8  4  0
 54 19  4  0
 18  4  4  0
 54 23  4  0
 15 10  4  0
 52 25  4  0
 50 27  4  0
 49 32  4  0
 42 33  4  0
 49 44  4  0
 40 35  4  0
  1 55  1  0
  2 56  1  0
  3 57  1  0
  6 58  1  0
  7 59  1  0
  9 60  1  0
 11 61  1  0
 12 62  1  0
 13 63  1  0
 14 64  1  0
 16 65  1  0
 20 66  1  0
 21 67  1  0
 22 68  1  0
 24 69  1  0
 26 70  1  0
 28 71  1  0
 29 72  1  0
 30 73  1  0
 34 74  1  0
 36 75  1  0
 37 76  1  0
 38 77  1  0
 39 78  1  0
 41 79  1  0
 43 80  1  0
 45 81  1  0
 46 82  1  0
 47 83  1  0
 48 84  1  0
 51 85  1  0
 53 86  1  0
M  END
