
     RDKit          3D

 98111  0  0  0  0  0  0  0  0999 V2000
   11.0450    3.9401   -0.6839 C   0  0  0  0  0  0  0  0  0  0  0  0
   10.0330    3.9340    0.2774 C   0  0  0  0  0  0  0  0  0  0  0  0
    9.0642    2.9168    0.2951 C   0  0  0  0  0  0  0  0  0  0  0  0
    8.0394    2.8966    1.2556 C   0  0  0  0  0  0  0  0  0  0  0  0
    7.0705    1.8787    1.2724 C   0  0  0  0  0  0  0  0  0  0  0  0
    6.0450    1.8577    2.2328 C   0  0  0  0  0  0  0  0  0  0  0  0
    5.0764    0.8394    2.2503 C   0  0  0  0  0  0  0  0  0  0  0  0
    4.0520    0.8163    3.2095 C   0  0  0  0  0  0  0  0  0  0  0  0
    3.0830   -0.2014    3.2311 C   0  0  0  0  0  0  0  0  0  0  0  0
    2.0745   -0.1926    4.2067 C   0  0  0  0  0  0  0  0  0  0  0  0
    1.1075   -1.1925    4.2466 C   0  0  0  0  0  0  0  0  0  0  0  0
    1.1371   -2.2179    3.3083 C   0  0  0  0  0  0  0  0  0  0  0  0
    2.1311   -2.2600    2.3128 C   0  0  0  0  0  0  0  0  0  0  0  0
    2.1080   -3.3865    1.3553 C   0  0  0  0  0  0  0  0  0  0  0  0
    2.7784   -4.5714    1.7141 C   0  0  0  0  0  0  0  0  0  0  0  0
    2.7917   -5.6713    0.8642 C   0  0  0  0  0  0  0  0  0  0  0  0
    2.1315   -5.6051   -0.3590 C   0  0  0  0  0  0  0  0  0  0  0  0
    1.4510   -4.4420   -0.7512 C   0  0  0  0  0  0  0  0  0  0  0  0
    0.7899   -4.3968   -1.9902 C   0  0  0  0  0  0  0  0  0  0  0  0
    0.1003   -3.2511   -2.4175 C   0  0  0  0  0  0  0  0  0  0  0  0
   -0.5607   -3.2093   -3.6552 C   0  0  0  0  0  0  0  0  0  0  0  0
   -1.2513   -2.0638   -4.0855 C   0  0  0  0  0  0  0  0  0  0  0  0
   -1.9024   -2.0608   -5.3287 C   0  0  0  0  0  0  0  0  0  0  0  0
   -2.5922   -0.9373   -5.7742 C   0  0  0  0  0  0  0  0  0  0  0  0
   -2.6390    0.2016   -4.9787 C   0  0  0  0  0  0  0  0  0  0  0  0
   -1.9995    0.2367   -3.7248 C   0  0  0  0  0  0  0  0  0  0  0  0
   -2.0902    1.4842   -2.9359 C   0  0  0  0  0  0  0  0  0  0  0  0
   -3.1241    1.7109   -1.9807 C   0  0  0  0  0  0  0  0  0  0  0  0
   -4.1380    0.7675   -1.6880 C   0  0  0  0  0  0  0  0  0  0  0  0
   -5.1515    1.0174   -0.7460 C   0  0  0  0  0  0  0  0  0  0  0  0
   -6.1527    0.0693   -0.4737 C   0  0  0  0  0  0  0  0  0  0  0  0
   -7.1667    0.3213    0.4660 C   0  0  0  0  0  0  0  0  0  0  0  0
   -8.1689   -0.6262    0.7362 C   0  0  0  0  0  0  0  0  0  0  0  0
   -9.1834   -0.3729    1.6745 C   0  0  0  0  0  0  0  0  0  0  0  0
  -10.1863   -1.3190    1.9443 C   0  0  0  0  0  0  0  0  0  0  0  0
  -11.1877   -1.0521    2.8793 C   0  0  0  0  0  0  0  0  0  0  0  0
  -11.1993    0.1633    3.5563 C   0  0  0  0  0  0  0  0  0  0  0  0
  -10.2097    1.1135    3.2993 C   0  0  0  0  0  0  0  0  0  0  0  0
   -9.1952    0.8597    2.3611 C   0  0  0  0  0  0  0  0  0  0  0  0
   -8.1925    1.8057    2.0908 C   0  0  0  0  0  0  0  0  0  0  0  0
   -7.1787    1.5515    1.1512 C   0  0  0  0  0  0  0  0  0  0  0  0
   -6.1764    2.4980    0.8790 C   0  0  0  0  0  0  0  0  0  0  0  0
   -5.1639    2.2448   -0.0624 C   0  0  0  0  0  0  0  0  0  0  0  0
   -4.1633    3.1898   -0.3379 C   0  0  0  0  0  0  0  0  0  0  0  0
   -3.1517    2.9411   -1.2813 C   0  0  0  0  0  0  0  0  0  0  0  0
   -2.1696    3.9113   -1.5334 C   0  0  0  0  0  0  0  0  0  0  0  0
   -1.1615    3.6850   -2.4657 C   0  0  0  0  0  0  0  0  0  0  0  0
   -1.1236    2.4819   -3.1614 C   0  0  0  0  0  0  0  0  0  0  0  0
   -1.2906   -0.9120   -3.2642 C   0  0  0  0  0  0  0  0  0  0  0  0
   -0.6180   -0.9725   -2.0194 C   0  0  0  0  0  0  0  0  0  0  0  0
    0.0709   -2.1212   -1.5878 C   0  0  0  0  0  0  0  0  0  0  0  0
    0.7307   -2.1666   -0.3458 C   0  0  0  0  0  0  0  0  0  0  0  0
    1.4302   -3.3135    0.1025 C   0  0  0  0  0  0  0  0  0  0  0  0
    3.1245   -1.2381    2.2683 C   0  0  0  0  0  0  0  0  0  0  0  0
    4.1626   -1.1982    1.3067 C   0  0  0  0  0  0  0  0  0  0  0  0
    5.1331   -0.1808    1.2861 C   0  0  0  0  0  0  0  0  0  0  0  0
    6.1581   -0.1608    0.3246 C   0  0  0  0  0  0  0  0  0  0  0  0
    7.1277    0.8562    0.3058 C   0  0  0  0  0  0  0  0  0  0  0  0
    8.1527    0.8755   -0.6556 C   0  0  0  0  0  0  0  0  0  0  0  0
    9.1216    1.8925   -0.6737 C   0  0  0  0  0  0  0  0  0  0  0  0
   10.1463    1.9125   -1.6346 C   0  0  0  0  0  0  0  0  0  0  0  0
   11.1015    2.9301   -1.6392 C   0  0  0  0  0  0  0  0  0  0  0  0
   11.7877    4.7337   -0.6857 H   0  0  0  0  0  0  0  0  0  0  0  0
   10.0056    4.7324    1.0156 H   0  0  0  0  0  0  0  0  0  0  0  0
    7.9959    3.6870    2.0027 H   0  0  0  0  0  0  0  0  0  0  0  0
    5.9999    2.6478    2.9801 H   0  0  0  0  0  0  0  0  0  0  0  0
    4.0093    1.6077    3.9563 H   0  0  0  0  0  0  0  0  0  0  0  0
    2.0345    0.6010    4.9502 H   0  0  0  0  0  0  0  0  0  0  0  0
    0.3322   -1.1725    5.0079 H   0  0  0  0  0  0  0  0  0  0  0  0
    0.3764   -2.9958    3.3485 H   0  0  0  0  0  0  0  0  0  0  0  0
    3.2983   -4.6323    2.6689 H   0  0  0  0  0  0  0  0  0  0  0  0
    3.3155   -6.5782    1.1545 H   0  0  0  0  0  0  0  0  0  0  0  0
    2.1520   -6.4768   -1.0100 H   0  0  0  0  0  0  0  0  0  0  0  0
    0.8122   -5.2722   -2.6373 H   0  0  0  0  0  0  0  0  0  0  0  0
   -0.5375   -4.0888   -4.2967 H   0  0  0  0  0  0  0  0  0  0  0  0
   -1.8762   -2.9428   -5.9657 H   0  0  0  0  0  0  0  0  0  0  0  0
   -3.0917   -0.9495   -6.7392 H   0  0  0  0  0  0  0  0  0  0  0  0
   -3.1824    1.0755   -5.3348 H   0  0  0  0  0  0  0  0  0  0  0  0
   -4.1401   -0.1905   -2.2063 H   0  0  0  0  0  0  0  0  0  0  0  0
   -6.1431   -0.8812   -1.0047 H   0  0  0  0  0  0  0  0  0  0  0  0
   -8.1596   -1.5772    0.2067 H   0  0  0  0  0  0  0  0  0  0  0  0
  -10.1934   -2.2747    1.4251 H   0  0  0  0  0  0  0  0  0  0  0  0
  -11.9571   -1.7936    3.0778 H   0  0  0  0  0  0  0  0  0  0  0  0
  -11.9778    0.3736    4.2849 H   0  0  0  0  0  0  0  0  0  0  0  0
  -10.2357    2.0576    3.8388 H   0  0  0  0  0  0  0  0  0  0  0  0
   -8.2020    2.7564    2.6206 H   0  0  0  0  0  0  0  0  0  0  0  0
   -6.1852    3.4491    1.4083 H   0  0  0  0  0  0  0  0  0  0  0  0
   -4.1740    4.1407    0.1927 H   0  0  0  0  0  0  0  0  0  0  0  0
   -2.1840    4.8603   -1.0009 H   0  0  0  0  0  0  0  0  0  0  0  0
   -0.4074    4.4455   -2.6503 H   0  0  0  0  0  0  0  0  0  0  0  0
   -0.3324    2.3151   -3.8903 H   0  0  0  0  0  0  0  0  0  0  0  0
   -0.6313   -0.1029   -1.3633 H   0  0  0  0  0  0  0  0  0  0  0  0
    0.6982   -1.2805    0.2873 H   0  0  0  0  0  0  0  0  0  0  0  0
    4.2178   -1.9796    0.5499 H   0  0  0  0  0  0  0  0  0  0  0  0
    6.2021   -0.9523   -0.4218 H   0  0  0  0  0  0  0  0  0  0  0  0
    8.1969    0.0855   -1.4031 H   0  0  0  0  0  0  0  0  0  0  0  0
   10.2069    1.1318   -2.3895 H   0  0  0  0  0  0  0  0  0  0  0  0
   11.8886    2.9331   -2.3888 H   0  0  0  0  0  0  0  0  0  0  0  0
  1  2  4  0
  2  3  4  0
  3  4  4  0
  4  5  4  0
  5  6  4  0
  6  7  4  0
  7  8  4  0
  8  9  4  0
  9 10  4  0
 10 11  4  0
 11 12  4  0
 12 13  4  0
 13 14  1  0
 14 15  4  0
 15 16  4  0
 16 17  4  0
 17 18  4  0
 18 19  4  0
 19 20  4  0
 20 21  4  0
 21 22  4  0
 22 23  4  0
 23 24  4  0
 24 25  4  0
 25 26  4  0
 26 27  1  0
 27 28  4  0
 28 29  4  0
 29 30  4  0
 30 31  4  0
 31 32  4  0
 32 33  4  0
 33 34  4  0
 34 35  4  0
 35 36  4  0
 36 37  4  0
 37 38  4  0
 38 39  4  0
 39 40  4  0
 40 41  4  0
 41 42  4  0
 42 43  4  0
 43 44  4  0
 44 45  4  0
 45 46  4  0
 46 47  4  0
 47 48  4  0
 26 49  4  0
 49 50  4  0
 50 51  4  0
 51 52  4  0
 52 53  4  0
 13 54  4  0
 54 55  4  0
 55 56  4  0
 56 57  4  0
 57 58  4  0
 58 59  4  0
 59 60  4  0
 60 61  4  0
 61 62  4  0
 62  1  4  0
 60  3  4  0
 58  5  4  0
 56  7  4  0
 54  9  4  0
 53 14  4  0
 53 18  4  0
 51 20  4  0
 49 22  4  0
 48 27  4  0
 45 28  4  0
 43 30  4  0
 41 32  4  0
 39 34  4  0
  1 63  1  0
  2 64  1  0
  4 65  1  0
  6 66  1  0
  8 67  1  0
 10 68  1  0
 11 69  1  0
 12 70  1  0
 15 71  1  0
 16 72  1  0
 17 73  1  0
 19 74  1  0
 21 75  1  0
 23 76  1  0
 24 77  1  0
 25 78  1  0
 29 79  1  0
 31 80  1  0
 33 81  1  0
 35 82  1  0
 36 83  1  0
 37 84  1  0
 38 85  1  0
 40 86  1  0
 42 87  1  0
 44 88  1  0
 46 89  1  0
 47 90  1  0
 48 91  1  0
 50 92  1  0
 52 93  1  0
 55 94  1  0
 57 95  1  0
 59 96  1  0
 61 97  1  0
 62 98  1  0
M  END
