
     RDKit          3D

 98111  0  0  0  0  0  0  0  0999 V2000
    4.2333   -5.3662    2.0182 C   0  0  0  0  0  0  0  0  0  0  0  0
    4.0207   -5.4961    0.6541 C   0  0  0  0  0  0  0  0  0  0  0  0
    3.8858   -4.3544   -0.1391 C   0  0  0  0  0  0  0  0  0  0  0  0
    3.9598   -3.0473    0.4050 C   0  0  0  0  0  0  0  0  0  0  0  0
    4.1744   -2.9391    1.7967 C   0  0  0  0  0  0  0  0  0  0  0  0
    4.3091   -4.0958    2.5848 C   0  0  0  0  0  0  0  0  0  0  0  0
    4.2505   -1.6743    2.3923 C   0  0  0  0  0  0  0  0  0  0  0  0
    4.1165   -0.4953    1.6485 C   0  0  0  0  0  0  0  0  0  0  0  0
    4.1944    0.7528    2.2922 C   0  0  0  0  0  0  0  0  0  0  0  0
    4.0619    1.9579    1.5863 C   0  0  0  0  0  0  0  0  0  0  0  0
    4.1375    3.2035    2.2331 C   0  0  0  0  0  0  0  0  0  0  0  0
    4.0038    4.4075    1.5218 C   0  0  0  0  0  0  0  0  0  0  0  0
    4.0796    5.6536    2.1665 C   0  0  0  0  0  0  0  0  0  0  0  0
    3.9443    6.8405    1.4447 C   0  0  0  0  0  0  0  0  0  0  0  0
    3.7316    6.7969    0.0703 C   0  0  0  0  0  0  0  0  0  0  0  0
    3.6541    5.5666   -0.5843 C   0  0  0  0  0  0  0  0  0  0  0  0
    3.7883    4.3633    0.1283 C   0  0  0  0  0  0  0  0  0  0  0  0
    3.7127    3.1166   -0.5146 C   0  0  0  0  0  0  0  0  0  0  0  0
    3.8475    1.9134    0.1997 C   0  0  0  0  0  0  0  0  0  0  0  0
    3.7723    0.6634   -0.4403 C   0  0  0  0  0  0  0  0  0  0  0  0
    3.9026   -0.5650    0.2566 C   0  0  0  0  0  0  0  0  0  0  0  0
    3.8256   -1.8510   -0.3710 C   0  0  0  0  0  0  0  0  0  0  0  0
    3.6111   -1.9451   -1.8393 C   0  0  0  0  0  0  0  0  0  0  0  0
    4.7451   -1.9995   -2.6727 C   0  0  0  0  0  0  0  0  0  0  0  0
    4.6126   -2.0874   -4.0536 C   0  0  0  0  0  0  0  0  0  0  0  0
    3.3436   -2.1206   -4.6245 C   0  0  0  0  0  0  0  0  0  0  0  0
    2.1899   -2.0665   -3.8267 C   0  0  0  0  0  0  0  0  0  0  0  0
    0.9171   -2.0964   -4.4218 C   0  0  0  0  0  0  0  0  0  0  0  0
   -0.2578   -2.0384   -3.6549 C   0  0  0  0  0  0  0  0  0  0  0  0
   -1.5286   -2.0597   -4.2510 C   0  0  0  0  0  0  0  0  0  0  0  0
   -2.7049   -1.9963   -3.4851 C   0  0  0  0  0  0  0  0  0  0  0  0
   -3.9581   -2.0139   -4.1168 C   0  0  0  0  0  0  0  0  0  0  0  0
   -5.1351   -1.9486   -3.3772 C   0  0  0  0  0  0  0  0  0  0  0  0
   -5.0733   -1.8681   -1.9911 C   0  0  0  0  0  0  0  0  0  0  0  0
   -3.8347   -1.8524   -1.3204 C   0  0  0  0  0  0  0  0  0  0  0  0
   -3.8486   -1.7777    0.1647 C   0  0  0  0  0  0  0  0  0  0  0  0
   -3.8234   -0.5014    0.8158 C   0  0  0  0  0  0  0  0  0  0  0  0
   -3.7550    0.7364    0.1269 C   0  0  0  0  0  0  0  0  0  0  0  0
   -3.7380    1.9768    0.7903 C   0  0  0  0  0  0  0  0  0  0  0  0
   -3.6728    3.1901    0.0835 C   0  0  0  0  0  0  0  0  0  0  0  0
   -3.6607    4.4269    0.7498 C   0  0  0  0  0  0  0  0  0  0  0  0
   -3.5980    5.6400    0.0444 C   0  0  0  0  0  0  0  0  0  0  0  0
   -3.5898    6.8607    0.7216 C   0  0  0  0  0  0  0  0  0  0  0  0
   -3.6431    6.8843    2.1118 C   0  0  0  0  0  0  0  0  0  0  0  0
   -3.7044    5.6873    2.8268 C   0  0  0  0  0  0  0  0  0  0  0  0
   -3.7141    4.4509    2.1594 C   0  0  0  0  0  0  0  0  0  0  0  0
   -3.7763    3.2370    2.8633 C   0  0  0  0  0  0  0  0  0  0  0  0
   -3.7889    2.0012    2.1931 C   0  0  0  0  0  0  0  0  0  0  0  0
   -3.8520    0.7864    2.8913 C   0  0  0  0  0  0  0  0  0  0  0  0
   -3.8692   -0.4516    2.2243 C   0  0  0  0  0  0  0  0  0  0  0  0
   -3.9357   -1.6404    2.9616 C   0  0  0  0  0  0  0  0  0  0  0  0
   -3.9583   -2.8960    2.3431 C   0  0  0  0  0  0  0  0  0  0  0  0
   -4.0292   -4.0624    3.1251 C   0  0  0  0  0  0  0  0  0  0  0  0
   -4.0522   -5.3243    2.5352 C   0  0  0  0  0  0  0  0  0  0  0  0
   -4.0019   -5.4356    1.1538 C   0  0  0  0  0  0  0  0  0  0  0  0
   -3.9329   -4.2837    0.3669 C   0  0  0  0  0  0  0  0  0  0  0  0
   -3.9122   -2.9845    0.9343 C   0  0  0  0  0  0  0  0  0  0  0  0
   -2.6257   -1.9138   -2.0744 C   0  0  0  0  0  0  0  0  0  0  0  0
   -1.3365   -1.8958   -1.4904 C   0  0  0  0  0  0  0  0  0  0  0  0
   -0.1596   -1.9543   -2.2588 C   0  0  0  0  0  0  0  0  0  0  0  0
    1.1136   -1.9279   -1.6624 C   0  0  0  0  0  0  0  0  0  0  0  0
    2.3085   -1.9792   -2.4195 C   0  0  0  0  0  0  0  0  0  0  0  0
    4.3354   -6.2495    2.6426 H   0  0  0  0  0  0  0  0  0  0  0  0
    3.9527   -6.4817    0.2016 H   0  0  0  0  0  0  0  0  0  0  0  0
    3.7114   -4.4995   -1.2036 H   0  0  0  0  0  0  0  0  0  0  0  0
    4.4726   -4.0142    3.6575 H   0  0  0  0  0  0  0  0  0  0  0  0
    4.4168   -1.6062    3.4669 H   0  0  0  0  0  0  0  0  0  0  0  0
    4.3605    0.7883    3.3679 H   0  0  0  0  0  0  0  0  0  0  0  0
    4.3031    3.2369    3.3083 H   0  0  0  0  0  0  0  0  0  0  0  0
    4.2451    5.7074    3.2401 H   0  0  0  0  0  0  0  0  0  0  0  0
    4.0048    7.7975    1.9564 H   0  0  0  0  0  0  0  0  0  0  0  0
    3.6256    7.7197   -0.4939 H   0  0  0  0  0  0  0  0  0  0  0  0
    3.4869    5.5530   -1.6590 H   0  0  0  0  0  0  0  0  0  0  0  0
    3.5461    3.0806   -1.5900 H   0  0  0  0  0  0  0  0  0  0  0  0
    3.6026    0.6511   -1.5162 H   0  0  0  0  0  0  0  0  0  0  0  0
    5.7418   -1.9733   -2.2348 H   0  0  0  0  0  0  0  0  0  0  0  0
    5.4968   -2.1293   -4.6841 H   0  0  0  0  0  0  0  0  0  0  0  0
    3.2614   -2.1880   -5.7076 H   0  0  0  0  0  0  0  0  0  0  0  0
    0.8375   -2.1639   -5.5055 H   0  0  0  0  0  0  0  0  0  0  0  0
   -1.6027   -2.1239   -5.3353 H   0  0  0  0  0  0  0  0  0  0  0  0
   -4.0273   -2.0779   -5.2010 H   0  0  0  0  0  0  0  0  0  0  0  0
   -6.0983   -1.9617   -3.8801 H   0  0  0  0  0  0  0  0  0  0  0  0
   -5.9988   -1.8185   -1.4195 H   0  0  0  0  0  0  0  0  0  0  0  0
   -3.7105    0.7395   -0.9614 H   0  0  0  0  0  0  0  0  0  0  0  0
   -3.6333    3.1707   -1.0042 H   0  0  0  0  0  0  0  0  0  0  0  0
   -3.5555    5.6417   -1.0424 H   0  0  0  0  0  0  0  0  0  0  0  0
   -3.5419    7.7915    0.1625 H   0  0  0  0  0  0  0  0  0  0  0  0
   -3.6367    7.8336    2.6410 H   0  0  0  0  0  0  0  0  0  0  0  0
   -3.7452    5.7257    3.9130 H   0  0  0  0  0  0  0  0  0  0  0  0
   -3.8167    3.2545    3.9508 H   0  0  0  0  0  0  0  0  0  0  0  0
   -3.8903    0.8060    3.9795 H   0  0  0  0  0  0  0  0  0  0  0  0
   -3.9720   -1.5874    4.0491 H   0  0  0  0  0  0  0  0  0  0  0  0
   -4.0674   -3.9957    4.2106 H   0  0  0  0  0  0  0  0  0  0  0  0
   -4.1074   -6.2156    3.1542 H   0  0  0  0  0  0  0  0  0  0  0  0
   -4.0141   -6.4143    0.6816 H   0  0  0  0  0  0  0  0  0  0  0  0
   -3.8903   -4.4148   -0.7130 H   0  0  0  0  0  0  0  0  0  0  0  0
   -1.2417   -1.8302   -0.4068 H   0  0  0  0  0  0  0  0  0  0  0  0
    1.1718   -1.8599   -0.5764 H   0  0  0  0  0  0  0  0  0  0  0  0
  1  2  4  0
  2  3  4  0
  3  4  4  0
  4  5  4  0
  5  6  4  0
  5  7  4  0
  7  8  4  0
  8  9  4  0
  9 10  4  0
 10 11  4  0
 11 12  4  0
 12 13  4  0
 13 14  4  0
 14 15  4  0
 15 16  4  0
 16 17  4  0
 17 18  4  0
 18 19  4  0
 19 20  4  0
 20 21  4  0
 21 22  4  0
 22 23  1  0
 23 24  4  0
 24 25  4  0
 25 26  4  0
 26 27  4  0
 27 28  4  0
 28 29  4  0
 29 30  4  0
 30 31  4  0
 31 32  4  0
 32 33  4  0
 33 34  4  0
 34 35  4  0
 35 36  1  0
 36 37  4  0
 37 38  4  0
 38 39  4  0
 39 40  4  0
 40 41  4  0
 41 42  4  0
 42 43  4  0
 43 44  4  0
 44 45  4  0
 45 46  4  0
 46 47  4  0
 47 48  4  0
 48 49  4  0
 49 50  4  0
 50 51  4  0
 51 52  4  0
 52 53  4  0
 53 54  4  0
 54 55  4  0
 55 56  4  0
 56 57  4  0
 35 58  4  0
 58 59  4  0
 59 60  4  0
 60 61  4  0
 61 62  4  0
  6  1  4  0
 21  8  4  0
 62 23  4  0
 22  4  4  0
 62 27  4  0
 19 10  4  0
 60 29  4  0
 17 12  4  0
 58 31  4  0
 57 36  4  0
 50 37  4  0
 57 52  4  0
 48 39  4  0
 46 41  4  0
  1 63  1  0
  2 64  1  0
  3 65  1  0
  6 66  1  0
  7 67  1  0
  9 68  1  0
 11 69  1  0
 13 70  1  0
 14 71  1  0
 15 72  1  0
 16 73  1  0
 18 74  1  0
 20 75  1  0
 24 76  1  0
 25 77  1  0
 26 78  1  0
 28 79  1  0
 30 80  1  0
 32 81  1  0
 33 82  1  0
 34 83  1  0
 38 84  1  0
 40 85  1  0
 42 86  1  0
 43 87  1  0
 44 88  1  0
 45 89  1  0
 47 90  1  0
 49 91  1  0
 51 92  1  0
 53 93  1  0
 54 94  1  0
 55 95  1  0
 56 96  1  0
 59 97  1  0
 61 98  1  0
M  END
