
     RDKit          3D

 98111  0  0  0  0  0  0  0  0999 V2000
   13.2958   -2.6818   -2.4379 C   0  0  0  0  0  0  0  0  0  0  0  0
   12.1634   -2.8217   -3.2334 C   0  0  0  0  0  0  0  0  0  0  0  0
   10.9959   -2.1283   -2.9100 C   0  0  0  0  0  0  0  0  0  0  0  0
   10.9454   -1.2854   -1.7859 C   0  0  0  0  0  0  0  0  0  0  0  0
    9.7772   -0.5777   -1.4426 C   0  0  0  0  0  0  0  0  0  0  0  0
    9.6961    0.2814   -0.3155 C   0  0  0  0  0  0  0  0  0  0  0  0
   10.8670    0.4027    0.4719 C   0  0  0  0  0  0  0  0  0  0  0  0
   12.0355   -0.3023    0.1345 C   0  0  0  0  0  0  0  0  0  0  0  0
   12.0912   -1.1448   -0.9837 C   0  0  0  0  0  0  0  0  0  0  0  0
   13.2608   -1.8482   -1.3194 C   0  0  0  0  0  0  0  0  0  0  0  0
   10.8679    1.2306    1.5972 C   0  0  0  0  0  0  0  0  0  0  0  0
    9.7296    1.9440    1.9597 C   0  0  0  0  0  0  0  0  0  0  0  0
    8.5558    1.8503    1.2084 C   0  0  0  0  0  0  0  0  0  0  0  0
    7.4244    2.5858    1.6030 C   0  0  0  0  0  0  0  0  0  0  0  0
    6.2220    2.5283    0.8865 C   0  0  0  0  0  0  0  0  0  0  0  0
    5.0937    3.2646    1.2813 C   0  0  0  0  0  0  0  0  0  0  0  0
    3.9043    3.1919    0.5530 C   0  0  0  0  0  0  0  0  0  0  0  0
    3.8144    2.3801   -0.5837 C   0  0  0  0  0  0  0  0  0  0  0  0
    2.5631    2.2994   -1.3534 C   0  0  0  0  0  0  0  0  0  0  0  0
    2.4323    3.1144   -2.4925 C   0  0  0  0  0  0  0  0  0  0  0  0
    1.2735    3.0904   -3.2606 C   0  0  0  0  0  0  0  0  0  0  0  0
    0.2243    2.2503   -2.9007 C   0  0  0  0  0  0  0  0  0  0  0  0
    0.3176    1.4223   -1.7720 C   0  0  0  0  0  0  0  0  0  0  0  0
   -0.7531    0.5817   -1.4239 C   0  0  0  0  0  0  0  0  0  0  0  0
   -0.6954   -0.2611   -0.3029 C   0  0  0  0  0  0  0  0  0  0  0  0
   -1.7697   -1.0984    0.0462 C   0  0  0  0  0  0  0  0  0  0  0  0
   -1.7311   -1.9525    1.1745 C   0  0  0  0  0  0  0  0  0  0  0  0
   -2.8081   -2.8067    1.5528 C   0  0  0  0  0  0  0  0  0  0  0  0
   -4.0716   -2.8633    0.8001 C   0  0  0  0  0  0  0  0  0  0  0  0
   -4.2999   -3.8760   -0.1383 C   0  0  0  0  0  0  0  0  0  0  0  0
   -5.4984   -3.9239   -0.8539 C   0  0  0  0  0  0  0  0  0  0  0  0
   -6.4971   -2.9598   -0.6460 C   0  0  0  0  0  0  0  0  0  0  0  0
   -7.7048   -2.9887   -1.3556 C   0  0  0  0  0  0  0  0  0  0  0  0
   -8.7053   -2.0225   -1.1512 C   0  0  0  0  0  0  0  0  0  0  0  0
   -9.8907   -2.0976   -1.8867 C   0  0  0  0  0  0  0  0  0  0  0  0
  -10.9008   -1.1569   -1.7110 C   0  0  0  0  0  0  0  0  0  0  0  0
  -10.7554   -0.1126   -0.7946 C   0  0  0  0  0  0  0  0  0  0  0  0
  -11.7952    0.8213   -0.6439 C   0  0  0  0  0  0  0  0  0  0  0  0
  -11.7022    1.8886    0.2593 C   0  0  0  0  0  0  0  0  0  0  0  0
  -12.7422    2.8221    0.4081 C   0  0  0  0  0  0  0  0  0  0  0  0
  -12.6288    3.8780    1.3131 C   0  0  0  0  0  0  0  0  0  0  0  0
  -11.4757    4.0132    2.0794 C   0  0  0  0  0  0  0  0  0  0  0  0
  -10.4361    3.0923    1.9406 C   0  0  0  0  0  0  0  0  0  0  0  0
  -10.5365    2.0237    1.0330 C   0  0  0  0  0  0  0  0  0  0  0  0
   -9.4986    1.0851    0.8787 C   0  0  0  0  0  0  0  0  0  0  0  0
   -9.5686   -0.0033   -0.0295 C   0  0  0  0  0  0  0  0  0  0  0  0
   -8.5215   -0.9791   -0.2113 C   0  0  0  0  0  0  0  0  0  0  0  0
   -7.2910   -0.9733    0.4959 C   0  0  0  0  0  0  0  0  0  0  0  0
   -6.2856   -1.9382    0.2946 C   0  0  0  0  0  0  0  0  0  0  0  0
   -5.0748   -1.9035    1.0098 C   0  0  0  0  0  0  0  0  0  0  0  0
   -2.6741   -3.6282    2.6868 C   0  0  0  0  0  0  0  0  0  0  0  0
   -1.5084   -3.6173    3.4453 C   0  0  0  0  0  0  0  0  0  0  0  0
   -0.4563   -2.7822    3.0822 C   0  0  0  0  0  0  0  0  0  0  0  0
   -0.5517   -1.9494    1.9572 C   0  0  0  0  0  0  0  0  0  0  0  0
    0.5214   -1.1128    1.6062 C   0  0  0  0  0  0  0  0  0  0  0  0
    0.4626   -0.2675    0.4871 C   0  0  0  0  0  0  0  0  0  0  0  0
    1.5356    0.5720    0.1391 C   0  0  0  0  0  0  0  0  0  0  0  0
    1.4925    1.4339   -0.9831 C   0  0  0  0  0  0  0  0  0  0  0  0
    4.9453    1.6481   -0.9778 C   0  0  0  0  0  0  0  0  0  0  0  0
    6.1498    1.7121   -0.2545 C   0  0  0  0  0  0  0  0  0  0  0  0
    7.2858    0.9779   -0.6457 C   0  0  0  0  0  0  0  0  0  0  0  0
    8.5152    1.0201    0.0616 C   0  0  0  0  0  0  0  0  0  0  0  0
   14.2067   -3.2200   -2.6865 H   0  0  0  0  0  0  0  0  0  0  0  0
   12.1868   -3.4696   -4.1056 H   0  0  0  0  0  0  0  0  0  0  0  0
   10.1214   -2.2507   -3.5451 H   0  0  0  0  0  0  0  0  0  0  0  0
    8.9098   -0.7094   -2.0839 H   0  0  0  0  0  0  0  0  0  0  0  0
   12.9231   -0.1929    0.7559 H   0  0  0  0  0  0  0  0  0  0  0  0
   14.1556   -1.7504   -0.7089 H   0  0  0  0  0  0  0  0  0  0  0  0
   11.7615    1.3315    2.2098 H   0  0  0  0  0  0  0  0  0  0  0  0
    9.7729    2.5781    2.8429 H   0  0  0  0  0  0  0  0  0  0  0  0
    7.4806    3.2179    2.4880 H   0  0  0  0  0  0  0  0  0  0  0  0
    5.1319    3.9031    2.1612 H   0  0  0  0  0  0  0  0  0  0  0  0
    3.0426    3.7714    0.8785 H   0  0  0  0  0  0  0  0  0  0  0  0
    3.2451    3.7788   -2.7809 H   0  0  0  0  0  0  0  0  0  0  0  0
    1.1869    3.7266   -4.1372 H   0  0  0  0  0  0  0  0  0  0  0  0
   -0.6746    2.2466   -3.5140 H   0  0  0  0  0  0  0  0  0  0  0  0
   -1.6526    0.5828   -2.0379 H   0  0  0  0  0  0  0  0  0  0  0  0
   -2.6600   -1.0829   -0.5811 H   0  0  0  0  0  0  0  0  0  0  0  0
   -3.5389   -4.6320   -0.3214 H   0  0  0  0  0  0  0  0  0  0  0  0
   -5.6449   -4.7216   -1.5787 H   0  0  0  0  0  0  0  0  0  0  0  0
   -7.8692   -3.7811   -2.0843 H   0  0  0  0  0  0  0  0  0  0  0  0
  -10.0433   -2.8949   -2.6113 H   0  0  0  0  0  0  0  0  0  0  0  0
  -11.8084   -1.2513   -2.3039 H   0  0  0  0  0  0  0  0  0  0  0  0
  -12.6981    0.7163   -1.2434 H   0  0  0  0  0  0  0  0  0  0  0  0
  -13.6509    2.7319   -0.1829 H   0  0  0  0  0  0  0  0  0  0  0  0
  -13.4403    4.5931    1.4185 H   0  0  0  0  0  0  0  0  0  0  0  0
  -11.3835    4.8342    2.7854 H   0  0  0  0  0  0  0  0  0  0  0  0
   -9.5427    3.2149    2.5489 H   0  0  0  0  0  0  0  0  0  0  0  0
   -8.6123    1.2193    1.4928 H   0  0  0  0  0  0  0  0  0  0  0  0
   -7.0949   -0.1968    1.2305 H   0  0  0  0  0  0  0  0  0  0  0  0
   -4.9018   -1.1147    1.7408 H   0  0  0  0  0  0  0  0  0  0  0  0
   -3.4928   -4.2816    2.9833 H   0  0  0  0  0  0  0  0  0  0  0  0
   -1.4205   -4.2569    4.3194 H   0  0  0  0  0  0  0  0  0  0  0  0
    0.4467   -2.7867    3.6897 H   0  0  0  0  0  0  0  0  0  0  0  0
    1.4230   -1.1181    2.2173 H   0  0  0  0  0  0  0  0  0  0  0  0
    2.4292    0.5509    0.7615 H   0  0  0  0  0  0  0  0  0  0  0  0
    4.8803    1.0159   -1.8623 H   0  0  0  0  0  0  0  0  0  0  0  0
    7.1948    0.3565   -1.5325 H   0  0  0  0  0  0  0  0  0  0  0  0
  1  2  4  0
  2  3  4  0
  3  4  4  0
  4  5  4  0
  5  6  4  0
  6  7  4  0
  7  8  4  0
  8  9  4  0
  9 10  4  0
  7 11  4  0
 11 12  4  0
 12 13  4  0
 13 14  4  0
 14 15  4  0
 15 16  4  0
 16 17  4  0
 17 18  4  0
 18 19  1  0
 19 20  4  0
 20 21  4  0
 21 22  4  0
 22 23  4  0
 23 24  4  0
 24 25  4  0
 25 26  4  0
 26 27  4  0
 27 28  4  0
 28 29  1  0
 29 30  4  0
 30 31  4  0
 31 32  4  0
 32 33  4  0
 33 34  4  0
 34 35  4  0
 35 36  4  0
 36 37  4  0
 37 38  4  0
 38 39  4  0
 39 40  4  0
 40 41  4  0
 41 42  4  0
 42 43  4  0
 43 44  4  0
 44 45  4  0
 45 46  4  0
 46 47  4  0
 47 48  4  0
 48 49  4  0
 49 50  4  0
 28 51  4  0
 51 52  4  0
 52 53  4  0
 53 54  4  0
 54 55  4  0
 55 56  4  0
 56 57  4  0
 57 58  4  0
 18 59  4  0
 59 60  4  0
 60 61  4  0
 61 62  4  0
 10  1  4  0
 62 13  4  0
  9  4  4  0
 60 15  4  0
 62  6  4  0
 58 19  4  0
 58 23  4  0
 56 25  4  0
 54 27  4  0
 50 29  4  0
 49 32  4  0
 47 34  4  0
 46 37  4  0
 44 39  4  0
  1 63  1  0
  2 64  1  0
  3 65  1  0
  5 66  1  0
  8 67  1  0
 10 68  1  0
 11 69  1  0
 12 70  1  0
 14 71  1  0
 16 72  1  0
 17 73  1  0
 20 74  1  0
 21 75  1  0
 22 76  1  0
 24 77  1  0
 26 78  1  0
 30 79  1  0
 31 80  1  0
 33 81  1  0
 35 82  1  0
 36 83  1  0
 38 84  1  0
 40 85  1  0
 41 86  1  0
 42 87  1  0
 43 88  1  0
 45 89  1  0
 48 90  1  0
 50 91  1  0
 51 92  1  0
 52 93  1  0
 53 94  1  0
 55 95  1  0
 57 96  1  0
 59 97  1  0
 61 98  1  0
M  END
