
     RDKit          3D

 98111  0  0  0  0  0  0  0  0999 V2000
   -6.5924   -4.4970    1.2082 C   0  0  0  0  0  0  0  0  0  0  0  0
   -5.4725   -4.5344    0.3841 C   0  0  0  0  0  0  0  0  0  0  0  0
   -4.9757   -3.3523   -0.1671 C   0  0  0  0  0  0  0  0  0  0  0  0
   -5.5932   -2.1170    0.0977 C   0  0  0  0  0  0  0  0  0  0  0  0
   -5.1078   -0.9104   -0.4508 C   0  0  0  0  0  0  0  0  0  0  0  0
   -5.6817    0.3729   -0.2266 C   0  0  0  0  0  0  0  0  0  0  0  0
   -6.8195    0.3488    0.6270 C   0  0  0  0  0  0  0  0  0  0  0  0
   -7.3175   -0.8454    1.1812 C   0  0  0  0  0  0  0  0  0  0  0  0
   -6.7194   -2.0822    0.9276 C   0  0  0  0  0  0  0  0  0  0  0  0
   -7.2134   -3.2774    1.4796 C   0  0  0  0  0  0  0  0  0  0  0  0
   -7.4829    1.5256    0.9453 C   0  0  0  0  0  0  0  0  0  0  0  0
   -7.0471    2.7386    0.4413 C   0  0  0  0  0  0  0  0  0  0  0  0
   -5.9377    2.8196   -0.4003 C   0  0  0  0  0  0  0  0  0  0  0  0
   -5.5948    4.1032   -0.8423 C   0  0  0  0  0  0  0  0  0  0  0  0
   -4.5147    4.3420   -1.6867 C   0  0  0  0  0  0  0  0  0  0  0  0
   -4.2211    5.6570   -2.0946 C   0  0  0  0  0  0  0  0  0  0  0  0
   -3.1469    5.9265   -2.9373 C   0  0  0  0  0  0  0  0  0  0  0  0
   -2.3539    4.8813   -3.3805 C   0  0  0  0  0  0  0  0  0  0  0  0
   -2.6440    3.5742   -2.9800 C   0  0  0  0  0  0  0  0  0  0  0  0
   -3.7336    3.2600   -2.1211 C   0  0  0  0  0  0  0  0  0  0  0  0
   -4.0761    1.9245   -1.6780 C   0  0  0  0  0  0  0  0  0  0  0  0
   -3.2234    0.8259   -2.1999 C   0  0  0  0  0  0  0  0  0  0  0  0
   -3.5956    0.2193   -3.4170 C   0  0  0  0  0  0  0  0  0  0  0  0
   -2.8222   -0.7913   -3.9762 C   0  0  0  0  0  0  0  0  0  0  0  0
   -1.6602   -1.2081   -3.3327 C   0  0  0  0  0  0  0  0  0  0  0  0
   -1.2515   -0.6223   -2.1243 C   0  0  0  0  0  0  0  0  0  0  0  0
   -0.0750   -1.0566   -1.4916 C   0  0  0  0  0  0  0  0  0  0  0  0
    0.3635   -0.4939   -0.2828 C   0  0  0  0  0  0  0  0  0  0  0  0
    1.5403   -0.9312    0.3498 C   0  0  0  0  0  0  0  0  0  0  0  0
    1.9962   -0.3756    1.5685 C   0  0  0  0  0  0  0  0  0  0  0  0
    3.1874   -0.8006    2.2324 C   0  0  0  0  0  0  0  0  0  0  0  0
    4.0282   -1.9159    1.7261 C   0  0  0  0  0  0  0  0  0  0  0  0
    5.2043   -1.6723    0.8902 C   0  0  0  0  0  0  0  0  0  0  0  0
    5.9448   -2.8396    0.5551 C   0  0  0  0  0  0  0  0  0  0  0  0
    5.5521   -4.1192    0.9671 C   0  0  0  0  0  0  0  0  0  0  0  0
    4.4180   -4.3421    1.7427 C   0  0  0  0  0  0  0  0  0  0  0  0
    4.0742   -5.6537    2.1217 C   0  0  0  0  0  0  0  0  0  0  0  0
    2.9518   -5.9061    2.9048 C   0  0  0  0  0  0  0  0  0  0  0  0
    2.1614   -4.8472    3.3189 C   0  0  0  0  0  0  0  0  0  0  0  0
    2.4998   -3.5437    2.9451 C   0  0  0  0  0  0  0  0  0  0  0  0
    3.6368   -3.2469    2.1428 C   0  0  0  0  0  0  0  0  0  0  0  0
    7.1130   -2.7722   -0.2043 C   0  0  0  0  0  0  0  0  0  0  0  0
    7.6030   -1.5639   -0.6688 C   0  0  0  0  0  0  0  0  0  0  0  0
    6.9274   -0.3801   -0.4065 C   0  0  0  0  0  0  0  0  0  0  0  0
    7.4755    0.8078   -0.9259 C   0  0  0  0  0  0  0  0  0  0  0  0
    6.8597    2.0481   -0.7391 C   0  0  0  0  0  0  0  0  0  0  0  0
    7.4019    3.2368   -1.2597 C   0  0  0  0  0  0  0  0  0  0  0  0
    6.7569    4.4585   -1.0646 C   0  0  0  0  0  0  0  0  0  0  0  0
    5.5642    4.5048   -0.3505 C   0  0  0  0  0  0  0  0  0  0  0  0
    5.0198    3.3294    0.1698 C   0  0  0  0  0  0  0  0  0  0  0  0
    5.6623    2.0923   -0.0156 C   0  0  0  0  0  0  0  0  0  0  0  0
    5.1311    0.8928    0.5056 C   0  0  0  0  0  0  0  0  0  0  0  0
    5.7252   -0.3918    0.3538 C   0  0  0  0  0  0  0  0  0  0  0  0
    3.5635   -0.1886    3.4454 C   0  0  0  0  0  0  0  0  0  0  0  0
    2.7976    0.8314    3.9977 C   0  0  0  0  0  0  0  0  0  0  0  0
    1.6376    1.2505    3.3522 C   0  0  0  0  0  0  0  0  0  0  0  0
    1.2252    0.6603    2.1471 C   0  0  0  0  0  0  0  0  0  0  0  0
    0.0489    1.0950    1.5141 C   0  0  0  0  0  0  0  0  0  0  0  0
   -0.3915    0.5295    0.3073 C   0  0  0  0  0  0  0  0  0  0  0  0
   -1.5700    0.9645   -0.3236 C   0  0  0  0  0  0  0  0  0  0  0  0
   -2.0269    0.4079   -1.5414 C   0  0  0  0  0  0  0  0  0  0  0  0
   -5.2043    1.6623   -0.7831 C   0  0  0  0  0  0  0  0  0  0  0  0
   -6.9828   -5.4143    1.6402 H   0  0  0  0  0  0  0  0  0  0  0  0
   -4.9848   -5.4809    0.1682 H   0  0  0  0  0  0  0  0  0  0  0  0
   -4.0986   -3.3983   -0.8095 H   0  0  0  0  0  0  0  0  0  0  0  0
   -4.2343   -1.0160   -1.0765 H   0  0  0  0  0  0  0  0  0  0  0  0
   -8.1928   -0.8129    1.8286 H   0  0  0  0  0  0  0  0  0  0  0  0
   -8.0875   -3.2638    2.1265 H   0  0  0  0  0  0  0  0  0  0  0  0
   -8.3540    1.5188    1.5973 H   0  0  0  0  0  0  0  0  0  0  0  0
   -7.6010    3.6330    0.7229 H   0  0  0  0  0  0  0  0  0  0  0  0
   -6.1925    4.9548   -0.5160 H   0  0  0  0  0  0  0  0  0  0  0  0
   -4.8353    6.4884   -1.7542 H   0  0  0  0  0  0  0  0  0  0  0  0
   -2.9331    6.9466   -3.2433 H   0  0  0  0  0  0  0  0  0  0  0  0
   -1.5086    5.0723   -4.0362 H   0  0  0  0  0  0  0  0  0  0  0  0
   -1.9906    2.7873   -3.3534 H   0  0  0  0  0  0  0  0  0  0  0  0
   -4.5011    0.5419   -3.9286 H   0  0  0  0  0  0  0  0  0  0  0  0
   -3.1237   -1.2528   -4.9129 H   0  0  0  0  0  0  0  0  0  0  0  0
   -1.0683   -2.0003   -3.7873 H   0  0  0  0  0  0  0  0  0  0  0  0
    0.5167   -1.8483   -1.9487 H   0  0  0  0  0  0  0  0  0  0  0  0
    2.1176   -1.7246   -0.1229 H   0  0  0  0  0  0  0  0  0  0  0  0
    6.1541   -4.9798    0.6741 H   0  0  0  0  0  0  0  0  0  0  0  0
    4.6866   -6.4962    1.8064 H   0  0  0  0  0  0  0  0  0  0  0  0
    2.6997   -6.9237    3.1891 H   0  0  0  0  0  0  0  0  0  0  0  0
    1.2811   -5.0246    3.9308 H   0  0  0  0  0  0  0  0  0  0  0  0
    1.8463   -2.7455    3.2934 H   0  0  0  0  0  0  0  0  0  0  0  0
    7.6736   -3.6737   -0.4470 H   0  0  0  0  0  0  0  0  0  0  0  0
    8.5224   -1.5675   -1.2511 H   0  0  0  0  0  0  0  0  0  0  0  0
    8.4022    0.7668   -1.4967 H   0  0  0  0  0  0  0  0  0  0  0  0
    8.3315    3.2163   -1.8236 H   0  0  0  0  0  0  0  0  0  0  0  0
    7.1844    5.3706   -1.4724 H   0  0  0  0  0  0  0  0  0  0  0  0
    5.0552    5.4527   -0.1982 H   0  0  0  0  0  0  0  0  0  0  0  0
    4.0837    3.3818    0.7229 H   0  0  0  0  0  0  0  0  0  0  0  0
    4.1987    1.0029    1.0394 H   0  0  0  0  0  0  0  0  0  0  0  0
    4.4651   -0.5159    3.9606 H   0  0  0  0  0  0  0  0  0  0  0  0
    3.1020    1.2967    4.9314 H   0  0  0  0  0  0  0  0  0  0  0  0
    1.0499    2.0482    3.8028 H   0  0  0  0  0  0  0  0  0  0  0  0
   -0.5399    1.8901    1.9694 H   0  0  0  0  0  0  0  0  0  0  0  0
   -2.1466    1.7576    0.1500 H   0  0  0  0  0  0  0  0  0  0  0  0
  1  2  4  0
  2  3  4  0
  3  4  4  0
  4  5  4  0
  5  6  4  0
  6  7  4  0
  7  8  4  0
  8  9  4  0
  9 10  4  0
  7 11  4  0
 11 12  4  0
 12 13  4  0
 13 14  4  0
 14 15  4  0
 15 16  4  0
 16 17  4  0
 17 18  4  0
 18 19  4  0
 19 20  4  0
 20 21  4  0
 21 22  1  0
 22 23  4  0
 23 24  4  0
 24 25  4  0
 25 26  4  0
 26 27  4  0
 27 28  4  0
 28 29  4  0
 29 30  4  0
 30 31  4  0
 31 32  1  0
 32 33  4  0
 33 34  4  0
 34 35  4  0
 35 36  4  0
 36 37  4  0
 37 38  4  0
 38 39  4  0
 39 40  4  0
 40 41  4  0
 34 42  4  0
 42 43  4  0
 43 44  4  0
 44 45  4  0
 45 46  4  0
 46 47  4  0
 47 48  4  0
 48 49  4  0
 49 50  4  0
 50 51  4  0
 51 52  4  0
 52 53  4  0
 31 54  4  0
 54 55  4  0
 55 56  4  0
 56 57  4  0
 57 58  4  0
 58 59  4  0
 59 60  4  0
 60 61  4  0
 21 62  4  0
 10  1  4  0
 62 13  4  0
  9  4  4  0
 20 15  4  0
 61 22  4  0
 62  6  4  0
 61 26  4  0
 59 28  4  0
 57 30  4  0
 41 32  4  0
 53 44  4  0
 53 33  4  0
 41 36  4  0
 51 46  4  0
  1 63  1  0
  2 64  1  0
  3 65  1  0
  5 66  1  0
  8 67  1  0
 10 68  1  0
 11 69  1  0
 12 70  1  0
 14 71  1  0
 16 72  1  0
 17 73  1  0
 18 74  1  0
 19 75  1  0
 23 76  1  0
 24 77  1  0
 25 78  1  0
 27 79  1  0
 29 80  1  0
 35 81  1  0
 37 82  1  0
 38 83  1  0
 39 84  1  0
 40 85  1  0
 42 86  1  0
 43 87  1  0
 45 88  1  0
 47 89  1  0
 48 90  1  0
 49 91  1  0
 50 92  1  0
 52 93  1  0
 54 94  1  0
 55 95  1  0
 56 96  1  0
 58 97  1  0
 60 98  1  0
M  END
