
     RDKit          3D

 98111  0  0  0  0  0  0  0  0999 V2000
   -9.4651   -1.5012   -5.0535 C   0  0  0  0  0  0  0  0  0  0  0  0
  -10.2475   -1.8157   -3.9471 C   0  0  0  0  0  0  0  0  0  0  0  0
   -9.8217   -1.4534   -2.6682 C   0  0  0  0  0  0  0  0  0  0  0  0
   -8.6068   -0.7717   -2.4790 C   0  0  0  0  0  0  0  0  0  0  0  0
   -8.1580   -0.3980   -1.1972 C   0  0  0  0  0  0  0  0  0  0  0  0
   -6.9362    0.2914   -0.9703 C   0  0  0  0  0  0  0  0  0  0  0  0
   -6.1701    0.5951   -2.1172 C   0  0  0  0  0  0  0  0  0  0  0  0
   -6.6106    0.2253   -3.4006 C   0  0  0  0  0  0  0  0  0  0  0  0
   -7.8187   -0.4547   -3.5977 C   0  0  0  0  0  0  0  0  0  0  0  0
   -8.2573   -0.8244   -4.8808 C   0  0  0  0  0  0  0  0  0  0  0  0
   -4.9570    1.2703   -1.9830 C   0  0  0  0  0  0  0  0  0  0  0  0
   -4.4611    1.6626   -0.7312 C   0  0  0  0  0  0  0  0  0  0  0  0
   -3.1603    2.3689   -0.7012 C   0  0  0  0  0  0  0  0  0  0  0  0
   -3.1569    3.7629   -0.8947 C   0  0  0  0  0  0  0  0  0  0  0  0
   -1.9678    4.4832   -0.8817 C   0  0  0  0  0  0  0  0  0  0  0  0
   -0.7614    3.8208   -0.6748 C   0  0  0  0  0  0  0  0  0  0  0  0
   -0.7249    2.4323   -0.4779 C   0  0  0  0  0  0  0  0  0  0  0  0
    0.5023    1.7823   -0.2650 C   0  0  0  0  0  0  0  0  0  0  0  0
    0.5768    0.3960   -0.0588 C   0  0  0  0  0  0  0  0  0  0  0  0
    1.8047   -0.2514    0.1639 C   0  0  0  0  0  0  0  0  0  0  0  0
    1.8972   -1.6467    0.3813 C   0  0  0  0  0  0  0  0  0  0  0  0
    3.1277   -2.3259    0.6206 C   0  0  0  0  0  0  0  0  0  0  0  0
    4.4244   -1.6148    0.6852 C   0  0  0  0  0  0  0  0  0  0  0  0
    4.8172   -1.0983    1.9288 C   0  0  0  0  0  0  0  0  0  0  0  0
    6.0191   -0.4109    2.0957 C   0  0  0  0  0  0  0  0  0  0  0  0
    6.3514    0.0881    3.3676 C   0  0  0  0  0  0  0  0  0  0  0  0
    7.5435    0.7860    3.5970 C   0  0  0  0  0  0  0  0  0  0  0  0
    7.8744    1.2844    4.8688 C   0  0  0  0  0  0  0  0  0  0  0  0
    9.0678    1.9773    5.0746 C   0  0  0  0  0  0  0  0  0  0  0  0
    9.9432    2.1797    4.0127 C   0  0  0  0  0  0  0  0  0  0  0  0
    9.6246    1.6890    2.7452 C   0  0  0  0  0  0  0  0  0  0  0  0
    8.4258    0.9891    2.5230 C   0  0  0  0  0  0  0  0  0  0  0  0
    8.0847    0.4860    1.2521 C   0  0  0  0  0  0  0  0  0  0  0  0
    6.8816   -0.2249    0.9931 C   0  0  0  0  0  0  0  0  0  0  0  0
    6.5015   -0.7511   -0.2962 C   0  0  0  0  0  0  0  0  0  0  0  0
    7.3080   -0.6129   -1.4577 C   0  0  0  0  0  0  0  0  0  0  0  0
    6.9441   -1.1187   -2.7187 C   0  0  0  0  0  0  0  0  0  0  0  0
    7.7688   -0.9642   -3.8475 C   0  0  0  0  0  0  0  0  0  0  0  0
    7.3858   -1.4740   -5.0891 C   0  0  0  0  0  0  0  0  0  0  0  0
    6.1741   -2.1443   -5.2180 C   0  0  0  0  0  0  0  0  0  0  0  0
    5.3472   -2.3041   -4.1055 C   0  0  0  0  0  0  0  0  0  0  0  0
    5.7237   -1.7949   -2.8505 C   0  0  0  0  0  0  0  0  0  0  0  0
    4.9099   -1.9448   -1.7188 C   0  0  0  0  0  0  0  0  0  0  0  0
    5.2680   -1.4435   -0.4422 C   0  0  0  0  0  0  0  0  0  0  0  0
    3.1227   -3.7183    0.8255 C   0  0  0  0  0  0  0  0  0  0  0  0
    1.9355   -4.4412    0.7942 C   0  0  0  0  0  0  0  0  0  0  0  0
    0.7318   -3.7822    0.5631 C   0  0  0  0  0  0  0  0  0  0  0  0
    0.6961   -2.3947    0.3584 C   0  0  0  0  0  0  0  0  0  0  0  0
   -0.5299   -1.7464    0.1339 C   0  0  0  0  0  0  0  0  0  0  0  0
   -0.6037   -0.3601   -0.0721 C   0  0  0  0  0  0  0  0  0  0  0  0
   -1.8320    0.2881   -0.2889 C   0  0  0  0  0  0  0  0  0  0  0  0
   -1.9266    1.6856   -0.4914 C   0  0  0  0  0  0  0  0  0  0  0  0
   -5.2078    1.3735    0.4400 C   0  0  0  0  0  0  0  0  0  0  0  0
   -4.7456    1.7509    1.7261 C   0  0  0  0  0  0  0  0  0  0  0  0
   -5.4575    1.4752    2.9016 C   0  0  0  0  0  0  0  0  0  0  0  0
   -4.9762    1.8576    4.1659 C   0  0  0  0  0  0  0  0  0  0  0  0
   -5.7030    1.5723    5.3222 C   0  0  0  0  0  0  0  0  0  0  0  0
   -6.9180    0.9020    5.2282 C   0  0  0  0  0  0  0  0  0  0  0  0
   -7.4041    0.5173    3.9777 C   0  0  0  0  0  0  0  0  0  0  0  0
   -6.6811    0.7990    2.8051 C   0  0  0  0  0  0  0  0  0  0  0  0
   -7.1506    0.4204    1.5345 C   0  0  0  0  0  0  0  0  0  0  0  0
   -6.4476    0.6864    0.3290 C   0  0  0  0  0  0  0  0  0  0  0  0
   -9.7937   -1.7812   -6.0509 H   0  0  0  0  0  0  0  0  0  0  0  0
  -11.1893   -2.3423   -4.0773 H   0  0  0  0  0  0  0  0  0  0  0  0
  -10.4479   -1.7076   -1.8159 H   0  0  0  0  0  0  0  0  0  0  0  0
   -8.7949   -0.6610   -0.3573 H   0  0  0  0  0  0  0  0  0  0  0  0
   -5.9984    0.4718   -4.2672 H   0  0  0  0  0  0  0  0  0  0  0  0
   -7.6577   -0.5859   -5.7565 H   0  0  0  0  0  0  0  0  0  0  0  0
   -4.3673    1.5004   -2.8707 H   0  0  0  0  0  0  0  0  0  0  0  0
   -4.0955    4.2913   -1.0537 H   0  0  0  0  0  0  0  0  0  0  0  0
   -1.9810    5.5595   -1.0317 H   0  0  0  0  0  0  0  0  0  0  0  0
    0.1592    4.4013   -0.6680 H   0  0  0  0  0  0  0  0  0  0  0  0
    1.4208    2.3673   -0.2561 H   0  0  0  0  0  0  0  0  0  0  0  0
    2.7122    0.3511    0.1685 H   0  0  0  0  0  0  0  0  0  0  0  0
    4.1536   -1.2396    2.7824 H   0  0  0  0  0  0  0  0  0  0  0  0
    5.6663   -0.0702    4.1994 H   0  0  0  0  0  0  0  0  0  0  0  0
    7.2014    1.1350    5.7101 H   0  0  0  0  0  0  0  0  0  0  0  0
    9.3119    2.3576    6.0630 H   0  0  0  0  0  0  0  0  0  0  0  0
   10.8737    2.7190    4.1685 H   0  0  0  0  0  0  0  0  0  0  0  0
   10.3219    1.8576    1.9275 H   0  0  0  0  0  0  0  0  0  0  0  0
    8.7920    0.6638    0.4469 H   0  0  0  0  0  0  0  0  0  0  0  0
    8.2606   -0.0939   -1.3961 H   0  0  0  0  0  0  0  0  0  0  0  0
    8.7202   -0.4434   -3.7659 H   0  0  0  0  0  0  0  0  0  0  0  0
    8.0337   -1.3475   -5.9525 H   0  0  0  0  0  0  0  0  0  0  0  0
    5.8702   -2.5433   -6.1820 H   0  0  0  0  0  0  0  0  0  0  0  0
    4.4026   -2.8308   -4.2234 H   0  0  0  0  0  0  0  0  0  0  0  0
    3.9640   -2.4707   -1.8424 H   0  0  0  0  0  0  0  0  0  0  0  0
    4.0587   -4.2428    1.0113 H   0  0  0  0  0  0  0  0  0  0  0  0
    1.9481   -5.5162    0.9534 H   0  0  0  0  0  0  0  0  0  0  0  0
   -0.1875   -4.3642    0.5456 H   0  0  0  0  0  0  0  0  0  0  0  0
   -1.4489   -2.3310    0.1227 H   0  0  0  0  0  0  0  0  0  0  0  0
   -2.7391   -0.3149   -0.2940 H   0  0  0  0  0  0  0  0  0  0  0  0
   -3.7961    2.2762    1.8221 H   0  0  0  0  0  0  0  0  0  0  0  0
   -4.0270    2.3816    4.2565 H   0  0  0  0  0  0  0  0  0  0  0  0
   -5.3192    1.8732    6.2933 H   0  0  0  0  0  0  0  0  0  0  0  0
   -7.4878    0.6771    6.1258 H   0  0  0  0  0  0  0  0  0  0  0  0
   -8.3555   -0.0068    3.9237 H   0  0  0  0  0  0  0  0  0  0  0  0
   -8.1028   -0.1018    1.5016 H   0  0  0  0  0  0  0  0  0  0  0  0
  1  2  4  0
  2  3  4  0
  3  4  4  0
  4  5  4  0
  5  6  4  0
  6  7  4  0
  7  8  4  0
  8  9  4  0
  9 10  4  0
  7 11  4  0
 11 12  4  0
 12 13  1  0
 13 14  4  0
 14 15  4  0
 15 16  4  0
 16 17  4  0
 17 18  4  0
 18 19  4  0
 19 20  4  0
 20 21  4  0
 21 22  4  0
 22 23  1  0
 23 24  4  0
 24 25  4  0
 25 26  4  0
 26 27  4  0
 27 28  4  0
 28 29  4  0
 29 30  4  0
 30 31  4  0
 31 32  4  0
 32 33  4  0
 33 34  4  0
 34 35  4  0
 35 36  4  0
 36 37  4  0
 37 38  4  0
 38 39  4  0
 39 40  4  0
 40 41  4  0
 41 42  4  0
 42 43  4  0
 43 44  4  0
 22 45  4  0
 45 46  4  0
 46 47  4  0
 47 48  4  0
 48 49  4  0
 49 50  4  0
 50 51  4  0
 51 52  4  0
 12 53  4  0
 53 54  4  0
 54 55  4  0
 55 56  4  0
 56 57  4  0
 57 58  4  0
 58 59  4  0
 59 60  4  0
 60 61  4  0
 61 62  4  0
 10  1  4  0
 52 13  4  0
 62 53  4  0
  9  4  4  0
 52 17  4  0
 60 55  4  0
 62  6  4  0
 50 19  4  0
 48 21  4  0
 44 23  4  0
 34 25  4  0
 44 35  4  0
 32 27  4  0
 42 37  4  0
  1 63  1  0
  2 64  1  0
  3 65  1  0
  5 66  1  0
  8 67  1  0
 10 68  1  0
 11 69  1  0
 14 70  1  0
 15 71  1  0
 16 72  1  0
 18 73  1  0
 20 74  1  0
 24 75  1  0
 26 76  1  0
 28 77  1  0
 29 78  1  0
 30 79  1  0
 31 80  1  0
 33 81  1  0
 36 82  1  0
 38 83  1  0
 39 84  1  0
 40 85  1  0
 41 86  1  0
 43 87  1  0
 45 88  1  0
 46 89  1  0
 47 90  1  0
 49 91  1  0
 51 92  1  0
 54 93  1  0
 56 94  1  0
 57 95  1  0
 58 96  1  0
 59 97  1  0
 61 98  1  0
M  END
