
     RDKit          3D

 90103  0  0  0  0  0  0  0  0999 V2000
   -6.3694    3.1485   -3.1718 C   0  0  0  0  0  0  0  0  0  0  0  0
   -5.2085    2.6320   -3.7085 C   0  0  0  0  0  0  0  0  0  0  0  0
   -4.6393    1.4989   -3.1332 C   0  0  0  0  0  0  0  0  0  0  0  0
   -5.2056    0.8427   -2.0071 C   0  0  0  0  0  0  0  0  0  0  0  0
   -6.3973    1.3709   -1.4468 C   0  0  0  0  0  0  0  0  0  0  0  0
   -6.9488    2.5282   -2.0638 C   0  0  0  0  0  0  0  0  0  0  0  0
   -6.9889    0.7345   -0.3020 C   0  0  0  0  0  0  0  0  0  0  0  0
   -6.3811   -0.4176    0.2643 C   0  0  0  0  0  0  0  0  0  0  0  0
   -6.9637   -1.0513    1.4076 C   0  0  0  0  0  0  0  0  0  0  0  0
   -6.3683   -2.1975    1.9843 C   0  0  0  0  0  0  0  0  0  0  0  0
   -6.9484   -2.8086    3.1063 C   0  0  0  0  0  0  0  0  0  0  0  0
   -8.1150   -2.2980    3.6668 C   0  0  0  0  0  0  0  0  0  0  0  0
   -8.7119   -1.1711    3.1099 C   0  0  0  0  0  0  0  0  0  0  0  0
   -8.1477   -0.5449    1.9879 C   0  0  0  0  0  0  0  0  0  0  0  0
   -8.7428    0.5810    1.4311 C   0  0  0  0  0  0  0  0  0  0  0  0
   -8.1751    1.2009    0.3162 C   0  0  0  0  0  0  0  0  0  0  0  0
   -5.2018   -2.7082    1.4255 C   0  0  0  0  0  0  0  0  0  0  0  0
   -4.6309   -2.0955    0.3114 C   0  0  0  0  0  0  0  0  0  0  0  0
   -5.1942   -0.9479   -0.2953 C   0  0  0  0  0  0  0  0  0  0  0  0
   -4.6079   -0.3180   -1.4320 C   0  0  0  0  0  0  0  0  0  0  0  0
   -3.3604   -0.8795   -2.0236 C   0  0  0  0  0  0  0  0  0  0  0  0
   -3.4832   -1.8234   -3.0618 C   0  0  0  0  0  0  0  0  0  0  0  0
   -2.3572   -2.3827   -3.6551 C   0  0  0  0  0  0  0  0  0  0  0  0
   -1.0891   -2.0091   -3.2183 C   0  0  0  0  0  0  0  0  0  0  0  0
   -0.9263   -1.0745   -2.1837 C   0  0  0  0  0  0  0  0  0  0  0  0
    0.3616   -0.7138   -1.7520 C   0  0  0  0  0  0  0  0  0  0  0  0
    0.5606    0.2125   -0.7158 C   0  0  0  0  0  0  0  0  0  0  0  0
    1.8495    0.5681   -0.2807 C   0  0  0  0  0  0  0  0  0  0  0  0
    2.0676    1.4943    0.7671 C   0  0  0  0  0  0  0  0  0  0  0  0
    3.3641    1.8694    1.2298 C   0  0  0  0  0  0  0  0  0  0  0  0
    4.6131    1.3134    0.6368 C   0  0  0  0  0  0  0  0  0  0  0  0
    5.1790    0.1210    1.1753 C   0  0  0  0  0  0  0  0  0  0  0  0
    4.5912   -0.5771    2.2567 C   0  0  0  0  0  0  0  0  0  0  0  0
    5.1448   -1.7432    2.7823 C   0  0  0  0  0  0  0  0  0  0  0  0
    6.3172   -2.2649    2.2462 C   0  0  0  0  0  0  0  0  0  0  0  0
    6.9355   -1.5983    1.1628 C   0  0  0  0  0  0  0  0  0  0  0  0
    8.1248   -2.1422    0.6291 C   0  0  0  0  0  0  0  0  0  0  0  0
    8.6729   -3.3160    1.1687 C   0  0  0  0  0  0  0  0  0  0  0  0
    8.0538   -3.9609    2.2348 C   0  0  0  0  0  0  0  0  0  0  0  0
    6.8811   -3.4377    2.7706 C   0  0  0  0  0  0  0  0  0  0  0  0
    8.7415   -1.4976   -0.4366 C   0  0  0  0  0  0  0  0  0  0  0  0
    8.1909   -0.3309   -0.9700 C   0  0  0  0  0  0  0  0  0  0  0  0
    7.0014    0.2550   -0.4718 C   0  0  0  0  0  0  0  0  0  0  0  0
    6.3707   -0.4014    0.6184 C   0  0  0  0  0  0  0  0  0  0  0  0
    6.4287    1.4545   -1.0178 C   0  0  0  0  0  0  0  0  0  0  0  0
    7.0023    2.1613   -2.1112 C   0  0  0  0  0  0  0  0  0  0  0  0
    6.4426    3.3240   -2.6425 C   0  0  0  0  0  0  0  0  0  0  0  0
    5.2801    3.8278   -2.0972 C   0  0  0  0  0  0  0  0  0  0  0  0
    4.6897    3.1649   -1.0246 C   0  0  0  0  0  0  0  0  0  0  0  0
    5.2346    1.9800   -0.4607 C   0  0  0  0  0  0  0  0  0  0  0  0
    3.4850    2.7971    2.2829 C   0  0  0  0  0  0  0  0  0  0  0  0
    2.3582    3.3540    2.8763 C   0  0  0  0  0  0  0  0  0  0  0  0
    1.0914    2.9923    2.4266 C   0  0  0  0  0  0  0  0  0  0  0  0
    0.9303    2.0704    1.3806 C   0  0  0  0  0  0  0  0  0  0  0  0
   -0.3571    1.7172    0.9419 C   0  0  0  0  0  0  0  0  0  0  0  0
   -0.5548    0.7952   -0.0980 C   0  0  0  0  0  0  0  0  0  0  0  0
   -1.8436    0.4398   -0.5324 C   0  0  0  0  0  0  0  0  0  0  0  0
   -2.0629   -0.4952   -1.5718 C   0  0  0  0  0  0  0  0  0  0  0  0
   -6.8293    4.0321   -3.6057 H   0  0  0  0  0  0  0  0  0  0  0  0
   -4.7405    3.1018   -4.5689 H   0  0  0  0  0  0  0  0  0  0  0  0
   -3.7215    1.1282   -3.5873 H   0  0  0  0  0  0  0  0  0  0  0  0
   -7.8601    2.9836   -1.6877 H   0  0  0  0  0  0  0  0  0  0  0  0
   -6.4922   -3.6896    3.5523 H   0  0  0  0  0  0  0  0  0  0  0  0
   -8.5577   -2.7771    4.5357 H   0  0  0  0  0  0  0  0  0  0  0  0
   -9.6236   -0.7832    3.5591 H   0  0  0  0  0  0  0  0  0  0  0  0
   -9.6554    0.9946    1.8544 H   0  0  0  0  0  0  0  0  0  0  0  0
   -8.6984    2.0752   -0.0593 H   0  0  0  0  0  0  0  0  0  0  0  0
   -4.7187   -3.5868    1.8468 H   0  0  0  0  0  0  0  0  0  0  0  0
   -3.7157   -2.5383   -0.0788 H   0  0  0  0  0  0  0  0  0  0  0  0
   -4.4713   -2.1218   -3.4091 H   0  0  0  0  0  0  0  0  0  0  0  0
   -2.4673   -3.1088   -4.4563 H   0  0  0  0  0  0  0  0  0  0  0  0
   -0.2199   -2.4588   -3.6948 H   0  0  0  0  0  0  0  0  0  0  0  0
    1.2306   -1.1660   -2.2285 H   0  0  0  0  0  0  0  0  0  0  0  0
    2.7052    0.1073   -0.7724 H   0  0  0  0  0  0  0  0  0  0  0  0
    3.6708   -0.2189    2.7153 H   0  0  0  0  0  0  0  0  0  0  0  0
    4.6441   -2.2338    3.6136 H   0  0  0  0  0  0  0  0  0  0  0  0
    9.5888   -3.7370    0.7598 H   0  0  0  0  0  0  0  0  0  0  0  0
    8.4840   -4.8696    2.6468 H   0  0  0  0  0  0  0  0  0  0  0  0
    6.4077   -3.9529    3.6034 H   0  0  0  0  0  0  0  0  0  0  0  0
    9.6582   -1.8914   -0.8696 H   0  0  0  0  0  0  0  0  0  0  0  0
    8.7311    0.1127   -1.8010 H   0  0  0  0  0  0  0  0  0  0  0  0
    7.9159    1.8150   -2.5852 H   0  0  0  0  0  0  0  0  0  0  0  0
    6.9190    3.8257   -3.4800 H   0  0  0  0  0  0  0  0  0  0  0  0
    4.8266    4.7298   -2.4979 H   0  0  0  0  0  0  0  0  0  0  0  0
    3.7721    3.5968   -0.6279 H   0  0  0  0  0  0  0  0  0  0  0  0
    4.4723    3.0860    2.6403 H   0  0  0  0  0  0  0  0  0  0  0  0
    2.4663    4.0688    3.6878 H   0  0  0  0  0  0  0  0  0  0  0  0
    0.2211    3.4385    2.9041 H   0  0  0  0  0  0  0  0  0  0  0  0
   -1.2264    2.1655    1.4214 H   0  0  0  0  0  0  0  0  0  0  0  0
   -2.6988    0.9038   -0.0426 H   0  0  0  0  0  0  0  0  0  0  0  0
  1  2  4  0
  2  3  4  0
  3  4  4  0
  4  5  4  0
  5  6  4  0
  5  7  4  0
  7  8  4  0
  8  9  4  0
  9 10  4  0
 10 11  4  0
 11 12  4  0
 12 13  4  0
 13 14  4  0
 14 15  4  0
 15 16  4  0
 10 17  4  0
 17 18  4  0
 18 19  4  0
 19 20  4  0
 20 21  1  0
 21 22  4  0
 22 23  4  0
 23 24  4  0
 24 25  4  0
 25 26  4  0
 26 27  4  0
 27 28  4  0
 28 29  4  0
 29 30  4  0
 30 31  1  0
 31 32  4  0
 32 33  4  0
 33 34  4  0
 34 35  4  0
 35 36  4  0
 36 37  4  0
 37 38  4  0
 38 39  4  0
 39 40  4  0
 37 41  4  0
 41 42  4  0
 42 43  4  0
 43 44  4  0
 43 45  4  0
 45 46  4  0
 46 47  4  0
 47 48  4  0
 48 49  4  0
 49 50  4  0
 30 51  4  0
 51 52  4  0
 52 53  4  0
 53 54  4  0
 54 55  4  0
 55 56  4  0
 56 57  4  0
 57 58  4  0
  6  1  4  0
 16  7  4  0
 58 21  4  0
 20  4  4  0
 58 25  4  0
 19  8  4  0
 56 27  4  0
 14  9  4  0
 54 29  4  0
 50 31  4  0
 44 32  4  0
 50 45  4  0
 40 35  4  0
 44 36  4  0
  1 59  1  0
  2 60  1  0
  3 61  1  0
  6 62  1  0
 11 63  1  0
 12 64  1  0
 13 65  1  0
 15 66  1  0
 16 67  1  0
 17 68  1  0
 18 69  1  0
 22 70  1  0
 23 71  1  0
 24 72  1  0
 26 73  1  0
 28 74  1  0
 33 75  1  0
 34 76  1  0
 38 77  1  0
 39 78  1  0
 40 79  1  0
 41 80  1  0
 42 81  1  0
 46 82  1  0
 47 83  1  0
 48 84  1  0
 49 85  1  0
 51 86  1  0
 52 87  1  0
 53 88  1  0
 55 89  1  0
 57 90  1  0
M  END
