
     RDKit          3D

 90103  0  0  0  0  0  0  0  0999 V2000
  -12.7775   -0.9382    1.0582 C   0  0  0  0  0  0  0  0  0  0  0  0
  -12.0743   -2.0793    0.6787 C   0  0  0  0  0  0  0  0  0  0  0  0
  -10.7779   -1.9775    0.1531 C   0  0  0  0  0  0  0  0  0  0  0  0
  -10.1771   -0.7035    0.0066 C   0  0  0  0  0  0  0  0  0  0  0  0
  -10.8969    0.4473    0.3940 C   0  0  0  0  0  0  0  0  0  0  0  0
  -12.1924    0.3180    0.9167 C   0  0  0  0  0  0  0  0  0  0  0  0
  -10.3001    1.6990    0.2482 C   0  0  0  0  0  0  0  0  0  0  0  0
   -9.0083    1.8151   -0.2743 C   0  0  0  0  0  0  0  0  0  0  0  0
   -8.2492    0.6910   -0.6761 C   0  0  0  0  0  0  0  0  0  0  0  0
   -8.8621   -0.5814   -0.5246 C   0  0  0  0  0  0  0  0  0  0  0  0
   -8.1691   -1.7521   -0.9016 C   0  0  0  0  0  0  0  0  0  0  0  0
   -6.8765   -1.6525   -1.4230 C   0  0  0  0  0  0  0  0  0  0  0  0
   -6.2451   -0.4149   -1.5835 C   0  0  0  0  0  0  0  0  0  0  0  0
   -4.9405   -0.3690   -2.1089 C   0  0  0  0  0  0  0  0  0  0  0  0
   -4.2598    0.8411   -2.2866 C   0  0  0  0  0  0  0  0  0  0  0  0
   -2.8920    0.8652   -2.8266 C   0  0  0  0  0  0  0  0  0  0  0  0
   -2.7294    0.9494   -4.2213 C   0  0  0  0  0  0  0  0  0  0  0  0
   -1.4620    0.9769   -4.7934 C   0  0  0  0  0  0  0  0  0  0  0  0
   -0.3352    0.9209   -3.9787 C   0  0  0  0  0  0  0  0  0  0  0  0
   -0.4574    0.8368   -2.5836 C   0  0  0  0  0  0  0  0  0  0  0  0
    0.6917    0.7830   -1.7769 C   0  0  0  0  0  0  0  0  0  0  0  0
    0.6078    0.7004   -0.3781 C   0  0  0  0  0  0  0  0  0  0  0  0
    1.7588    0.6512    0.4278 C   0  0  0  0  0  0  0  0  0  0  0  0
    1.6945    0.5743    1.8398 C   0  0  0  0  0  0  0  0  0  0  0  0
    2.8463    0.5316    2.6790 C   0  0  0  0  0  0  0  0  0  0  0  0
    4.2151    0.5799    2.1415 C   0  0  0  0  0  0  0  0  0  0  0  0
    4.8107    1.7950    1.8062 C   0  0  0  0  0  0  0  0  0  0  0  0
    6.1112    1.8318    1.2905 C   0  0  0  0  0  0  0  0  0  0  0  0
    6.8797    0.6583    1.0883 C   0  0  0  0  0  0  0  0  0  0  0  0
    6.2651   -0.5680    1.4384 C   0  0  0  0  0  0  0  0  0  0  0  0
    4.9562   -0.5927    1.9549 C   0  0  0  0  0  0  0  0  0  0  0  0
    6.9593   -1.7706    1.2707 C   0  0  0  0  0  0  0  0  0  0  0  0
    8.2602   -1.7999    0.7610 C   0  0  0  0  0  0  0  0  0  0  0  0
    8.9336   -3.0195    0.6052 C   0  0  0  0  0  0  0  0  0  0  0  0
   10.2312   -3.0610    0.0967 C   0  0  0  0  0  0  0  0  0  0  0  0
   10.8872   -1.8823   -0.2690 C   0  0  0  0  0  0  0  0  0  0  0  0
   10.2207   -0.6420   -0.1176 C   0  0  0  0  0  0  0  0  0  0  0  0
   10.8845    0.5475   -0.4876 C   0  0  0  0  0  0  0  0  0  0  0  0
   12.1899    0.4891   -0.9982 C   0  0  0  0  0  0  0  0  0  0  0  0
   12.8400   -0.7341   -1.1446 C   0  0  0  0  0  0  0  0  0  0  0  0
   12.1922   -1.9129   -0.7821 C   0  0  0  0  0  0  0  0  0  0  0  0
   10.2234    1.7658   -0.3368 C   0  0  0  0  0  0  0  0  0  0  0  0
    8.9227    1.8113    0.1742 C   0  0  0  0  0  0  0  0  0  0  0  0
    8.2183    0.6463    0.5589 C   0  0  0  0  0  0  0  0  0  0  0  0
    8.8962   -0.5920    0.4017 C   0  0  0  0  0  0  0  0  0  0  0  0
    2.6836    0.4457    4.0738 C   0  0  0  0  0  0  0  0  0  0  0  0
    1.4163    0.4059    4.6455 C   0  0  0  0  0  0  0  0  0  0  0  0
    0.2892    0.4517    3.8304 C   0  0  0  0  0  0  0  0  0  0  0  0
    0.4109    0.5360    2.4352 C   0  0  0  0  0  0  0  0  0  0  0  0
   -0.7387    0.5825    1.6282 C   0  0  0  0  0  0  0  0  0  0  0  0
   -0.6552    0.6671    0.2295 C   0  0  0  0  0  0  0  0  0  0  0  0
   -1.8060    0.7193   -0.5766 C   0  0  0  0  0  0  0  0  0  0  0  0
   -1.7409    0.8068   -1.9879 C   0  0  0  0  0  0  0  0  0  0  0  0
   -4.9125    2.0215   -1.9352 C   0  0  0  0  0  0  0  0  0  0  0  0
   -6.2102    1.9881   -1.4120 C   0  0  0  0  0  0  0  0  0  0  0  0
   -6.9175    0.7755   -1.2162 C   0  0  0  0  0  0  0  0  0  0  0  0
   -8.7779   -3.0057   -0.7512 C   0  0  0  0  0  0  0  0  0  0  0  0
  -10.0663   -3.1178   -0.2302 C   0  0  0  0  0  0  0  0  0  0  0  0
  -13.7816   -1.0279    1.4643 H   0  0  0  0  0  0  0  0  0  0  0  0
  -12.5474   -3.0517    0.7967 H   0  0  0  0  0  0  0  0  0  0  0  0
  -12.7565    1.1979    1.2181 H   0  0  0  0  0  0  0  0  0  0  0  0
  -10.8317    2.6025    0.5388 H   0  0  0  0  0  0  0  0  0  0  0  0
   -8.6049    2.8201   -0.3592 H   0  0  0  0  0  0  0  0  0  0  0  0
   -6.3489   -2.5612   -1.7098 H   0  0  0  0  0  0  0  0  0  0  0  0
   -4.4343   -1.2946   -2.3821 H   0  0  0  0  0  0  0  0  0  0  0  0
   -3.6044    0.9946   -4.8677 H   0  0  0  0  0  0  0  0  0  0  0  0
   -1.3520    1.0424   -5.8726 H   0  0  0  0  0  0  0  0  0  0  0  0
    0.6481    0.9440   -4.4448 H   0  0  0  0  0  0  0  0  0  0  0  0
    1.6742    0.8070   -2.2464 H   0  0  0  0  0  0  0  0  0  0  0  0
    2.7316    0.6729   -0.0616 H   0  0  0  0  0  0  0  0  0  0  0  0
    4.2635    2.7262    1.9400 H   0  0  0  0  0  0  0  0  0  0  0  0
    6.5125    2.8115    1.0478 H   0  0  0  0  0  0  0  0  0  0  0  0
    4.4957   -1.5456    2.2148 H   0  0  0  0  0  0  0  0  0  0  0  0
    6.4749   -2.7075    1.5429 H   0  0  0  0  0  0  0  0  0  0  0  0
    8.4516   -3.9554    0.8805 H   0  0  0  0  0  0  0  0  0  0  0  0
   10.7240   -4.0247   -0.0105 H   0  0  0  0  0  0  0  0  0  0  0  0
   12.7111    1.3994   -1.2863 H   0  0  0  0  0  0  0  0  0  0  0  0
   13.8512   -0.7688   -1.5411 H   0  0  0  0  0  0  0  0  0  0  0  0
   12.7153   -2.8589   -0.9034 H   0  0  0  0  0  0  0  0  0  0  0  0
   10.7110    2.6978   -0.6143 H   0  0  0  0  0  0  0  0  0  0  0  0
    8.4680    2.7937    0.2643 H   0  0  0  0  0  0  0  0  0  0  0  0
    3.5585    0.4145    4.7212 H   0  0  0  0  0  0  0  0  0  0  0  0
    1.3071    0.3417    5.7249 H   0  0  0  0  0  0  0  0  0  0  0  0
   -0.6939    0.4212    4.2963 H   0  0  0  0  0  0  0  0  0  0  0  0
   -1.7213    0.5534    2.0974 H   0  0  0  0  0  0  0  0  0  0  0  0
   -2.7793    0.6915   -0.0881 H   0  0  0  0  0  0  0  0  0  0  0  0
   -4.4125    2.9800   -2.0604 H   0  0  0  0  0  0  0  0  0  0  0  0
   -6.6585    2.9439   -1.1567 H   0  0  0  0  0  0  0  0  0  0  0  0
   -8.2517   -3.9131   -1.0402 H   0  0  0  0  0  0  0  0  0  0  0  0
  -10.5082   -4.1063   -0.1272 H   0  0  0  0  0  0  0  0  0  0  0  0
  1  2  4  0
  2  3  4  0
  3  4  4  0
  4  5  4  0
  5  6  4  0
  5  7  4  0
  7  8  4  0
  8  9  4  0
  9 10  4  0
 10 11  4  0
 11 12  4  0
 12 13  4  0
 13 14  4  0
 14 15  4  0
 15 16  1  0
 16 17  4  0
 17 18  4  0
 18 19  4  0
 19 20  4  0
 20 21  4  0
 21 22  4  0
 22 23  4  0
 23 24  4  0
 24 25  4  0
 25 26  1  0
 26 27  4  0
 27 28  4  0
 28 29  4  0
 29 30  4  0
 30 31  4  0
 30 32  4  0
 32 33  4  0
 33 34  4  0
 34 35  4  0
 35 36  4  0
 36 37  4  0
 37 38  4  0
 38 39  4  0
 39 40  4  0
 40 41  4  0
 38 42  4  0
 42 43  4  0
 43 44  4  0
 44 45  4  0
 25 46  4  0
 46 47  4  0
 47 48  4  0
 48 49  4  0
 49 50  4  0
 50 51  4  0
 51 52  4  0
 52 53  4  0
 15 54  4  0
 54 55  4  0
 55 56  4  0
 11 57  4  0
 57 58  4  0
  6  1  4  0
 56  9  4  0
 58  3  4  0
 10  4  4  0
 56 13  4  0
 53 16  4  0
 53 20  4  0
 51 22  4  0
 49 24  4  0
 31 26  4  0
 45 33  4  0
 44 29  4  0
 41 36  4  0
 45 37  4  0
  1 59  1  0
  2 60  1  0
  6 61  1  0
  7 62  1  0
  8 63  1  0
 12 64  1  0
 14 65  1  0
 17 66  1  0
 18 67  1  0
 19 68  1  0
 21 69  1  0
 23 70  1  0
 27 71  1  0
 28 72  1  0
 31 73  1  0
 32 74  1  0
 34 75  1  0
 35 76  1  0
 39 77  1  0
 40 78  1  0
 41 79  1  0
 42 80  1  0
 43 81  1  0
 46 82  1  0
 47 83  1  0
 48 84  1  0
 50 85  1  0
 52 86  1  0
 54 87  1  0
 55 88  1  0
 57 89  1  0
 58 90  1  0
M  END
