
     RDKit          3D

 90103  0  0  0  0  0  0  0  0999 V2000
   10.4421    2.8872   -2.5767 C   0  0  0  0  0  0  0  0  0  0  0  0
   11.0465    1.7358   -2.0987 C   0  0  0  0  0  0  0  0  0  0  0  0
   10.3632    0.9128   -1.1985 C   0  0  0  0  0  0  0  0  0  0  0  0
    9.0522    1.2091   -0.7432 C   0  0  0  0  0  0  0  0  0  0  0  0
    8.4603    2.3915   -1.2492 C   0  0  0  0  0  0  0  0  0  0  0  0
    9.1568    3.2120   -2.1537 C   0  0  0  0  0  0  0  0  0  0  0  0
    7.1707    2.7517   -0.8498 C   0  0  0  0  0  0  0  0  0  0  0  0
    6.4376    1.9685    0.0456 C   0  0  0  0  0  0  0  0  0  0  0  0
    5.1496    2.3563    0.4221 C   0  0  0  0  0  0  0  0  0  0  0  0
    4.4049    1.5849    1.3127 C   0  0  0  0  0  0  0  0  0  0  0  0
    4.9178    0.3956    1.8639 C   0  0  0  0  0  0  0  0  0  0  0  0
    6.2287    0.0005    1.4822 C   0  0  0  0  0  0  0  0  0  0  0  0
    6.7805   -1.1874    2.0122 C   0  0  0  0  0  0  0  0  0  0  0  0
    6.0419   -1.9685    2.9057 C   0  0  0  0  0  0  0  0  0  0  0  0
    4.7583   -1.5860    3.2807 C   0  0  0  0  0  0  0  0  0  0  0  0
    4.1781   -0.4132    2.7723 C   0  0  0  0  0  0  0  0  0  0  0  0
    2.8079   -0.0708    3.2099 C   0  0  0  0  0  0  0  0  0  0  0  0
    2.6566    0.6924    4.3824 C   0  0  0  0  0  0  0  0  0  0  0  0
    1.3947    1.0419    4.8501 C   0  0  0  0  0  0  0  0  0  0  0  0
    0.2621    0.6311    4.1533 C   0  0  0  0  0  0  0  0  0  0  0  0
    0.3733   -0.1316    2.9809 C   0  0  0  0  0  0  0  0  0  0  0  0
   -0.7814   -0.5373    2.2913 C   0  0  0  0  0  0  0  0  0  0  0  0
   -0.7080   -1.2987    1.1145 C   0  0  0  0  0  0  0  0  0  0  0  0
   -1.8649   -1.7032    0.4265 C   0  0  0  0  0  0  0  0  0  0  0  0
   -1.8120   -2.4652   -0.7648 C   0  0  0  0  0  0  0  0  0  0  0  0
   -2.9708   -2.8801   -1.4850 C   0  0  0  0  0  0  0  0  0  0  0  0
   -4.3408   -2.5429   -1.0404 C   0  0  0  0  0  0  0  0  0  0  0  0
   -5.0352   -3.4875   -0.2684 C   0  0  0  0  0  0  0  0  0  0  0  0
   -6.3221   -3.2273    0.1913 C   0  0  0  0  0  0  0  0  0  0  0  0
   -6.9500   -2.0150   -0.1093 C   0  0  0  0  0  0  0  0  0  0  0  0
   -8.2377   -1.7560    0.3564 C   0  0  0  0  0  0  0  0  0  0  0  0
   -8.8721   -0.5475    0.0615 C   0  0  0  0  0  0  0  0  0  0  0  0
   -8.2538    0.4602   -0.7110 C   0  0  0  0  0  0  0  0  0  0  0  0
   -6.9399    0.1900   -1.1834 C   0  0  0  0  0  0  0  0  0  0  0  0
   -6.2653    1.1548   -1.9600 C   0  0  0  0  0  0  0  0  0  0  0  0
   -6.8872    2.3695   -2.2610 C   0  0  0  0  0  0  0  0  0  0  0  0
   -8.1776    2.6615   -1.8107 C   0  0  0  0  0  0  0  0  0  0  0  0
   -8.7608    3.8976   -2.1410 C   0  0  0  0  0  0  0  0  0  0  0  0
  -10.0436    4.2260   -1.7126 C   0  0  0  0  0  0  0  0  0  0  0  0
  -10.7592    3.3195   -0.9472 C   0  0  0  0  0  0  0  0  0  0  0  0
  -10.1890    2.0874   -0.6127 C   0  0  0  0  0  0  0  0  0  0  0  0
   -8.8841    1.7153   -1.0298 C   0  0  0  0  0  0  0  0  0  0  0  0
   -4.9750    0.8946   -2.4277 C   0  0  0  0  0  0  0  0  0  0  0  0
   -4.3404   -0.3113   -2.1349 C   0  0  0  0  0  0  0  0  0  0  0  0
   -4.9686   -1.3056   -1.3615 C   0  0  0  0  0  0  0  0  0  0  0  0
   -6.2829   -1.0428   -0.8874 C   0  0  0  0  0  0  0  0  0  0  0  0
   -2.8213   -3.6395   -2.6600 C   0  0  0  0  0  0  0  0  0  0  0  0
   -1.5599   -3.9865   -3.1310 C   0  0  0  0  0  0  0  0  0  0  0  0
   -0.4259   -3.5798   -2.4338 C   0  0  0  0  0  0  0  0  0  0  0  0
   -0.5345   -2.8234   -1.2570 C   0  0  0  0  0  0  0  0  0  0  0  0
    0.6214   -2.4199   -0.5669 C   0  0  0  0  0  0  0  0  0  0  0  0
    0.5495   -1.6623    0.6128 C   0  0  0  0  0  0  0  0  0  0  0  0
    1.7062   -1.2587    1.3027 C   0  0  0  0  0  0  0  0  0  0  0  0
    1.6511   -0.4928    2.4918 C   0  0  0  0  0  0  0  0  0  0  0  0
    8.0654   -1.5745    1.6368 C   0  0  0  0  0  0  0  0  0  0  0  0
    8.8093   -0.8013    0.7434 C   0  0  0  0  0  0  0  0  0  0  0  0
    8.3084    0.3938    0.1816 C   0  0  0  0  0  0  0  0  0  0  0  0
    6.9973    0.7845    0.5696 C   0  0  0  0  0  0  0  0  0  0  0  0
   10.9668    3.5322   -3.2761 H   0  0  0  0  0  0  0  0  0  0  0  0
   12.0500    1.4712   -2.4215 H   0  0  0  0  0  0  0  0  0  0  0  0
   10.8850    0.0237   -0.8571 H   0  0  0  0  0  0  0  0  0  0  0  0
    8.6980    4.1204   -2.5394 H   0  0  0  0  0  0  0  0  0  0  0  0
    6.7241    3.6627   -1.2457 H   0  0  0  0  0  0  0  0  0  0  0  0
    4.7053    3.2668    0.0253 H   0  0  0  0  0  0  0  0  0  0  0  0
    3.4055    1.9311    1.5699 H   0  0  0  0  0  0  0  0  0  0  0  0
    6.4582   -2.8848    3.3184 H   0  0  0  0  0  0  0  0  0  0  0  0
    4.1994   -2.2126    3.9735 H   0  0  0  0  0  0  0  0  0  0  0  0
    3.5369    1.0189    4.9336 H   0  0  0  0  0  0  0  0  0  0  0  0
    1.2939    1.6325    5.7567 H   0  0  0  0  0  0  0  0  0  0  0  0
   -0.7177    0.9125    4.5348 H   0  0  0  0  0  0  0  0  0  0  0  0
   -1.7601   -0.2538    2.6763 H   0  0  0  0  0  0  0  0  0  0  0  0
   -2.8333   -1.4114    0.8309 H   0  0  0  0  0  0  0  0  0  0  0  0
   -4.5648   -4.4363   -0.0165 H   0  0  0  0  0  0  0  0  0  0  0  0
   -6.8281   -3.9818    0.7895 H   0  0  0  0  0  0  0  0  0  0  0  0
   -8.7685   -2.4916    0.9571 H   0  0  0  0  0  0  0  0  0  0  0  0
   -9.8747   -0.4138    0.4569 H   0  0  0  0  0  0  0  0  0  0  0  0
   -6.3518    3.1045   -2.8602 H   0  0  0  0  0  0  0  0  0  0  0  0
   -8.2135    4.6215   -2.7418 H   0  0  0  0  0  0  0  0  0  0  0  0
  -10.4799    5.1852   -1.9774 H   0  0  0  0  0  0  0  0  0  0  0  0
  -11.7622    3.5636   -0.6070 H   0  0  0  0  0  0  0  0  0  0  0  0
  -10.7955    1.4160   -0.0119 H   0  0  0  0  0  0  0  0  0  0  0  0
   -4.4437    1.6294   -3.0291 H   0  0  0  0  0  0  0  0  0  0  0  0
   -3.3349   -0.4618   -2.5238 H   0  0  0  0  0  0  0  0  0  0  0  0
   -3.7015   -3.9592   -3.2154 H   0  0  0  0  0  0  0  0  0  0  0  0
   -1.4604   -4.5723   -4.0409 H   0  0  0  0  0  0  0  0  0  0  0  0
    0.5527   -3.8605   -2.8186 H   0  0  0  0  0  0  0  0  0  0  0  0
    1.5997   -2.6990   -0.9558 H   0  0  0  0  0  0  0  0  0  0  0  0
    2.6754   -1.5480    0.8984 H   0  0  0  0  0  0  0  0  0  0  0  0
    8.5084   -2.4854    2.0339 H   0  0  0  0  0  0  0  0  0  0  0  0
    9.8029   -1.1631    0.4956 H   0  0  0  0  0  0  0  0  0  0  0  0
  1  2  4  0
  2  3  4  0
  3  4  4  0
  4  5  4  0
  5  6  4  0
  5  7  4  0
  7  8  4  0
  8  9  4  0
  9 10  4  0
 10 11  4  0
 11 12  4  0
 12 13  4  0
 13 14  4  0
 14 15  4  0
 15 16  4  0
 16 17  1  0
 17 18  4  0
 18 19  4  0
 19 20  4  0
 20 21  4  0
 21 22  4  0
 22 23  4  0
 23 24  4  0
 24 25  4  0
 25 26  4  0
 26 27  1  0
 27 28  4  0
 28 29  4  0
 29 30  4  0
 30 31  4  0
 31 32  4  0
 32 33  4  0
 33 34  4  0
 34 35  4  0
 35 36  4  0
 36 37  4  0
 37 38  4  0
 38 39  4  0
 39 40  4  0
 40 41  4  0
 41 42  4  0
 35 43  4  0
 43 44  4  0
 44 45  4  0
 45 46  4  0
 26 47  4  0
 47 48  4  0
 48 49  4  0
 49 50  4  0
 50 51  4  0
 51 52  4  0
 52 53  4  0
 53 54  4  0
 13 55  4  0
 55 56  4  0
 56 57  4  0
 57 58  4  0
  6  1  4  0
 58  8  4  0
 57  4  4  0
 16 11  4  0
 54 17  4  0
 58 12  4  0
 54 21  4  0
 52 23  4  0
 50 25  4  0
 45 27  4  0
 46 30  4  0
 42 33  4  0
 46 34  4  0
 42 37  4  0
  1 59  1  0
  2 60  1  0
  3 61  1  0
  6 62  1  0
  7 63  1  0
  9 64  1  0
 10 65  1  0
 14 66  1  0
 15 67  1  0
 18 68  1  0
 19 69  1  0
 20 70  1  0
 22 71  1  0
 24 72  1  0
 28 73  1  0
 29 74  1  0
 31 75  1  0
 32 76  1  0
 36 77  1  0
 38 78  1  0
 39 79  1  0
 40 80  1  0
 41 81  1  0
 43 82  1  0
 44 83  1  0
 47 84  1  0
 48 85  1  0
 49 86  1  0
 51 87  1  0
 53 88  1  0
 55 89  1  0
 56 90  1  0
M  END
