
     RDKit          3D

 90103  0  0  0  0  0  0  0  0999 V2000
  -10.2880    3.1645   -0.1713 C   0  0  0  0  0  0  0  0  0  0  0  0
  -10.8818    2.0805    0.4548 C   0  0  0  0  0  0  0  0  0  0  0  0
  -10.2160    0.8520    0.5003 C   0  0  0  0  0  0  0  0  0  0  0  0
   -8.9335    0.6610   -0.0771 C   0  0  0  0  0  0  0  0  0  0  0  0
   -8.3519    1.7859   -0.7093 C   0  0  0  0  0  0  0  0  0  0  0  0
   -9.0308    3.0166   -0.7494 C   0  0  0  0  0  0  0  0  0  0  0  0
   -7.0903    1.6782   -1.3010 C   0  0  0  0  0  0  0  0  0  0  0  0
   -6.3754    0.4772   -1.2870 C   0  0  0  0  0  0  0  0  0  0  0  0
   -5.1134    0.4046   -1.8872 C   0  0  0  0  0  0  0  0  0  0  0  0
   -4.3621   -0.7821   -1.8908 C   0  0  0  0  0  0  0  0  0  0  0  0
   -3.0345   -0.7631   -2.5428 C   0  0  0  0  0  0  0  0  0  0  0  0
   -2.9705   -1.0111   -3.9264 C   0  0  0  0  0  0  0  0  0  0  0  0
   -1.7526   -1.0109   -4.5973 C   0  0  0  0  0  0  0  0  0  0  0  0
   -0.5772   -0.7609   -3.8949 C   0  0  0  0  0  0  0  0  0  0  0  0
   -0.6011   -0.5060   -2.5153 C   0  0  0  0  0  0  0  0  0  0  0  0
    0.5954   -0.2558   -1.8225 C   0  0  0  0  0  0  0  0  0  0  0  0
    0.6073    0.0024   -0.4428 C   0  0  0  0  0  0  0  0  0  0  0  0
    1.8049    0.2524    0.2488 C   0  0  0  0  0  0  0  0  0  0  0  0
    1.8372    0.5181    1.6385 C   0  0  0  0  0  0  0  0  0  0  0  0
    3.0380    0.7810    2.3607 C   0  0  0  0  0  0  0  0  0  0  0  0
    4.3649    0.7939    1.7081 C   0  0  0  0  0  0  0  0  0  0  0  0
    5.1170   -0.3921    1.7206 C   0  0  0  0  0  0  0  0  0  0  0  0
    6.3773   -0.4727    1.1190 C   0  0  0  0  0  0  0  0  0  0  0  0
    7.0919   -1.6733    1.1486 C   0  0  0  0  0  0  0  0  0  0  0  0
    8.3508   -1.7898    0.5538 C   0  0  0  0  0  0  0  0  0  0  0  0
    9.0282   -3.0204    0.6087 C   0  0  0  0  0  0  0  0  0  0  0  0
   10.2830   -3.1774    0.0278 C   0  0  0  0  0  0  0  0  0  0  0  0
   10.8757   -2.1029   -0.6155 C   0  0  0  0  0  0  0  0  0  0  0  0
   10.2107   -0.8746   -0.6758 C   0  0  0  0  0  0  0  0  0  0  0  0
    8.9306   -0.6743   -0.0964 C   0  0  0  0  0  0  0  0  0  0  0  0
    8.2056    0.5691   -0.1324 C   0  0  0  0  0  0  0  0  0  0  0  0
    6.9252    0.6571    0.4804 C   0  0  0  0  0  0  0  0  0  0  0  0
    6.1762    1.8696    0.4627 C   0  0  0  0  0  0  0  0  0  0  0  0
    4.8957    1.9463    1.0746 C   0  0  0  0  0  0  0  0  0  0  0  0
    4.2017    3.1762    1.0193 C   0  0  0  0  0  0  0  0  0  0  0  0
    4.7425    4.2936    0.3882 C   0  0  0  0  0  0  0  0  0  0  0  0
    5.9946    4.2107   -0.2063 C   0  0  0  0  0  0  0  0  0  0  0  0
    6.7159    3.0110   -0.1762 C   0  0  0  0  0  0  0  0  0  0  0  0
    7.9707    2.9310   -0.7769 C   0  0  0  0  0  0  0  0  0  0  0  0
    8.6960    1.7383   -0.7544 C   0  0  0  0  0  0  0  0  0  0  0  0
    2.9750    1.0324    3.7437 C   0  0  0  0  0  0  0  0  0  0  0  0
    1.7574    1.0320    4.4148 C   0  0  0  0  0  0  0  0  0  0  0  0
    0.5821    0.7794    3.7133 C   0  0  0  0  0  0  0  0  0  0  0  0
    0.6051    0.5228    2.3340 C   0  0  0  0  0  0  0  0  0  0  0  0
   -0.5915    0.2712    1.6416 C   0  0  0  0  0  0  0  0  0  0  0  0
   -0.6046    0.0121    0.2620 C   0  0  0  0  0  0  0  0  0  0  0  0
   -1.8023   -0.2380   -0.4299 C   0  0  0  0  0  0  0  0  0  0  0  0
   -1.8339   -0.5018   -1.8199 C   0  0  0  0  0  0  0  0  0  0  0  0
   -4.8949   -1.9428   -1.2743 C   0  0  0  0  0  0  0  0  0  0  0  0
   -6.1764   -1.8740   -0.6633 C   0  0  0  0  0  0  0  0  0  0  0  0
   -6.7176   -3.0241   -0.0411 C   0  0  0  0  0  0  0  0  0  0  0  0
   -5.9959   -4.2239   -0.0253 C   0  0  0  0  0  0  0  0  0  0  0  0
   -4.7433   -4.2992   -0.6196 C   0  0  0  0  0  0  0  0  0  0  0  0
   -4.2021   -3.1739   -1.2360 C   0  0  0  0  0  0  0  0  0  0  0  0
   -7.9743   -2.9528    0.5569 C   0  0  0  0  0  0  0  0  0  0  0  0
   -8.6999   -1.7601    0.5484 C   0  0  0  0  0  0  0  0  0  0  0  0
   -8.2078   -0.5823   -0.0558 C   0  0  0  0  0  0  0  0  0  0  0  0
   -6.9253   -0.6614   -0.6660 C   0  0  0  0  0  0  0  0  0  0  0  0
  -10.7987    4.1224   -0.2113 H   0  0  0  0  0  0  0  0  0  0  0  0
  -11.8633    2.1827    0.9100 H   0  0  0  0  0  0  0  0  0  0  0  0
  -10.7285    0.0373    1.0034 H   0  0  0  0  0  0  0  0  0  0  0  0
   -8.5795    3.8788   -1.2368 H   0  0  0  0  0  0  0  0  0  0  0  0
   -6.6530    2.5510   -1.7842 H   0  0  0  0  0  0  0  0  0  0  0  0
   -4.6908    1.2901   -2.3620 H   0  0  0  0  0  0  0  0  0  0  0  0
   -3.8841   -1.2109   -4.4840 H   0  0  0  0  0  0  0  0  0  0  0  0
   -1.7195   -1.2064   -5.6658 H   0  0  0  0  0  0  0  0  0  0  0  0
    0.3662   -0.7663   -4.4375 H   0  0  0  0  0  0  0  0  0  0  0  0
    1.5398   -0.2610   -2.3660 H   0  0  0  0  0  0  0  0  0  0  0  0
    2.7369    0.2418   -0.3148 H   0  0  0  0  0  0  0  0  0  0  0  0
    4.6960   -1.2709    2.2092 H   0  0  0  0  0  0  0  0  0  0  0  0
    6.6557   -2.5390    1.6455 H   0  0  0  0  0  0  0  0  0  0  0  0
    8.5779   -3.8750    1.1102 H   0  0  0  0  0  0  0  0  0  0  0  0
   10.7929   -4.1353    0.0792 H   0  0  0  0  0  0  0  0  0  0  0  0
   11.8555   -2.2125   -1.0728 H   0  0  0  0  0  0  0  0  0  0  0  0
   10.7216   -0.0674   -1.1926 H   0  0  0  0  0  0  0  0  0  0  0  0
    3.2160    3.2765    1.4706 H   0  0  0  0  0  0  0  0  0  0  0  0
    4.1846    5.2256    0.3606 H   0  0  0  0  0  0  0  0  0  0  0  0
    6.4035    5.0917   -0.6958 H   0  0  0  0  0  0  0  0  0  0  0  0
    8.4036    3.7968   -1.2734 H   0  0  0  0  0  0  0  0  0  0  0  0
    9.6660    1.7483   -1.2428 H   0  0  0  0  0  0  0  0  0  0  0  0
    3.8882    1.2346    4.3009 H   0  0  0  0  0  0  0  0  0  0  0  0
    1.7240    1.2291    5.4830 H   0  0  0  0  0  0  0  0  0  0  0  0
   -0.3613    0.7841    4.2559 H   0  0  0  0  0  0  0  0  0  0  0  0
   -1.5349    0.2778    2.1861 H   0  0  0  0  0  0  0  0  0  0  0  0
   -2.7346   -0.2279    0.1333 H   0  0  0  0  0  0  0  0  0  0  0  0
   -6.4048   -5.1111    0.4526 H   0  0  0  0  0  0  0  0  0  0  0  0
   -4.1857   -5.2317   -0.6043 H   0  0  0  0  0  0  0  0  0  0  0  0
   -3.2175   -3.2697   -1.6902 H   0  0  0  0  0  0  0  0  0  0  0  0
   -8.4086   -3.8257    1.0396 H   0  0  0  0  0  0  0  0  0  0  0  0
   -9.6717   -1.7774    1.0330 H   0  0  0  0  0  0  0  0  0  0  0  0
  1  2  4  0
  2  3  4  0
  3  4  4  0
  4  5  4  0
  5  6  4  0
  5  7  4  0
  7  8  4  0
  8  9  4  0
  9 10  4  0
 10 11  1  0
 11 12  4  0
 12 13  4  0
 13 14  4  0
 14 15  4  0
 15 16  4  0
 16 17  4  0
 17 18  4  0
 18 19  4  0
 19 20  4  0
 20 21  1  0
 21 22  4  0
 22 23  4  0
 23 24  4  0
 24 25  4  0
 25 26  4  0
 26 27  4  0
 27 28  4  0
 28 29  4  0
 29 30  4  0
 30 31  4  0
 31 32  4  0
 32 33  4  0
 33 34  4  0
 34 35  4  0
 35 36  4  0
 36 37  4  0
 37 38  4  0
 38 39  4  0
 39 40  4  0
 20 41  4  0
 41 42  4  0
 42 43  4  0
 43 44  4  0
 44 45  4  0
 45 46  4  0
 46 47  4  0
 47 48  4  0
 10 49  4  0
 49 50  4  0
 50 51  4  0
 51 52  4  0
 52 53  4  0
 53 54  4  0
 51 55  4  0
 55 56  4  0
 56 57  4  0
 57 58  4  0
  6  1  4  0
 58  8  4  0
 57  4  4  0
 48 11  4  0
 54 49  4  0
 48 15  4  0
 58 50  4  0
 46 17  4  0
 44 19  4  0
 34 21  4  0
 32 23  4  0
 38 33  4  0
 30 25  4  0
 40 31  4  0
  1 59  1  0
  2 60  1  0
  3 61  1  0
  6 62  1  0
  7 63  1  0
  9 64  1  0
 12 65  1  0
 13 66  1  0
 14 67  1  0
 16 68  1  0
 18 69  1  0
 22 70  1  0
 24 71  1  0
 26 72  1  0
 27 73  1  0
 28 74  1  0
 29 75  1  0
 35 76  1  0
 36 77  1  0
 37 78  1  0
 39 79  1  0
 40 80  1  0
 41 81  1  0
 42 82  1  0
 43 83  1  0
 45 84  1  0
 47 85  1  0
 52 86  1  0
 53 87  1  0
 54 88  1  0
 55 89  1  0
 56 90  1  0
M  END
