
     RDKit          3D

 90103  0  0  0  0  0  0  0  0999 V2000
    5.5564    3.1892    3.7386 C   0  0  0  0  0  0  0  0  0  0  0  0
    6.6949    2.5044    4.1303 C   0  0  0  0  0  0  0  0  0  0  0  0
    7.2064    1.4856    3.3208 C   0  0  0  0  0  0  0  0  0  0  0  0
    6.6000    1.1129    2.0912 C   0  0  0  0  0  0  0  0  0  0  0  0
    5.4415    1.8291    1.7183 C   0  0  0  0  0  0  0  0  0  0  0  0
    4.9348    2.8522    2.5400 C   0  0  0  0  0  0  0  0  0  0  0  0
    4.7876    1.5226    0.5204 C   0  0  0  0  0  0  0  0  0  0  0  0
    5.2364    0.5151   -0.3548 C   0  0  0  0  0  0  0  0  0  0  0  0
    6.3961   -0.2143    0.0086 C   0  0  0  0  0  0  0  0  0  0  0  0
    7.0835    0.0739    1.2234 C   0  0  0  0  0  0  0  0  0  0  0  0
    8.2317   -0.6988    1.5135 C   0  0  0  0  0  0  0  0  0  0  0  0
    8.6924   -1.7064    0.6640 C   0  0  0  0  0  0  0  0  0  0  0  0
    8.0220   -1.9904   -0.5222 C   0  0  0  0  0  0  0  0  0  0  0  0
    8.4790   -3.0030   -1.3789 C   0  0  0  0  0  0  0  0  0  0  0  0
    7.8061   -3.2846   -2.5640 C   0  0  0  0  0  0  0  0  0  0  0  0
    6.6709   -2.5550   -2.9044 C   0  0  0  0  0  0  0  0  0  0  0  0
    6.1962   -1.5376   -2.0630 C   0  0  0  0  0  0  0  0  0  0  0  0
    6.8696   -1.2439   -0.8562 C   0  0  0  0  0  0  0  0  0  0  0  0
    5.0589   -0.8063   -2.4045 C   0  0  0  0  0  0  0  0  0  0  0  0
    4.5657    0.2128   -1.5732 C   0  0  0  0  0  0  0  0  0  0  0  0
    3.3529    0.9340   -2.0190 C   0  0  0  0  0  0  0  0  0  0  0  0
    3.5185    2.0754   -2.8254 C   0  0  0  0  0  0  0  0  0  0  0  0
    2.4187    2.7915   -3.2842 C   0  0  0  0  0  0  0  0  0  0  0  0
    1.1342    2.3756   -2.9463 C   0  0  0  0  0  0  0  0  0  0  0  0
    0.9288    1.2411   -2.1466 C   0  0  0  0  0  0  0  0  0  0  0  0
   -0.3759    0.8358   -1.8169 C   0  0  0  0  0  0  0  0  0  0  0  0
   -0.6176   -0.2907   -1.0149 C   0  0  0  0  0  0  0  0  0  0  0  0
   -1.9232   -0.6926   -0.6808 C   0  0  0  0  0  0  0  0  0  0  0  0
   -2.1844   -1.8182    0.1366 C   0  0  0  0  0  0  0  0  0  0  0  0
   -3.4968   -2.2377    0.5046 C   0  0  0  0  0  0  0  0  0  0  0  0
   -4.7138   -1.5202    0.0627 C   0  0  0  0  0  0  0  0  0  0  0  0
   -5.3846   -2.0071   -1.0711 C   0  0  0  0  0  0  0  0  0  0  0  0
   -6.5435   -1.3952   -1.5501 C   0  0  0  0  0  0  0  0  0  0  0  0
   -7.0529   -0.2603   -0.8803 C   0  0  0  0  0  0  0  0  0  0  0  0
   -8.2276    0.3506   -1.3743 C   0  0  0  0  0  0  0  0  0  0  0  0
   -8.8689   -0.1686   -2.5088 C   0  0  0  0  0  0  0  0  0  0  0  0
   -8.3585   -1.2873   -3.1604 C   0  0  0  0  0  0  0  0  0  0  0  0
   -7.2015   -1.8967   -2.6834 C   0  0  0  0  0  0  0  0  0  0  0  0
   -8.7359    1.4691   -0.7203 C   0  0  0  0  0  0  0  0  0  0  0  0
   -8.0933    1.9817    0.4081 C   0  0  0  0  0  0  0  0  0  0  0  0
   -6.9166    1.4056    0.9397 C   0  0  0  0  0  0  0  0  0  0  0  0
   -6.3952    0.2593    0.2726 C   0  0  0  0  0  0  0  0  0  0  0  0
   -5.2208   -0.3781    0.7446 C   0  0  0  0  0  0  0  0  0  0  0  0
   -4.5928    0.1549    1.8864 C   0  0  0  0  0  0  0  0  0  0  0  0
   -5.0775    1.2805    2.5593 C   0  0  0  0  0  0  0  0  0  0  0  0
   -4.3896    1.7578    3.6892 C   0  0  0  0  0  0  0  0  0  0  0  0
   -4.8394    2.8737    4.3882 C   0  0  0  0  0  0  0  0  0  0  0  0
   -5.9849    3.5262    3.9633 C   0  0  0  0  0  0  0  0  0  0  0  0
   -6.6747    3.0601    2.8400 C   0  0  0  0  0  0  0  0  0  0  0  0
   -6.2468    1.9254    2.1006 C   0  0  0  0  0  0  0  0  0  0  0  0
   -3.6585   -3.3724    1.3216 C   0  0  0  0  0  0  0  0  0  0  0  0
   -2.5575   -4.0868    1.7795 C   0  0  0  0  0  0  0  0  0  0  0  0
   -1.2749   -3.6780    1.4273 C   0  0  0  0  0  0  0  0  0  0  0  0
   -1.0730   -2.5534    0.6133 C   0  0  0  0  0  0  0  0  0  0  0  0
    0.2306   -2.1539    0.2743 C   0  0  0  0  0  0  0  0  0  0  0  0
    0.4711   -1.0306   -0.5320 C   0  0  0  0  0  0  0  0  0  0  0  0
    1.7768   -0.6289   -0.8643 C   0  0  0  0  0  0  0  0  0  0  0  0
    2.0391    0.5040   -1.6706 C   0  0  0  0  0  0  0  0  0  0  0  0
    5.1516    3.9828    4.3604 H   0  0  0  0  0  0  0  0  0  0  0  0
    7.1907    2.7572    5.0638 H   0  0  0  0  0  0  0  0  0  0  0  0
    8.1013    0.9839    3.6771 H   0  0  0  0  0  0  0  0  0  0  0  0
    4.0413    3.4007    2.2470 H   0  0  0  0  0  0  0  0  0  0  0  0
    3.8946    2.0920    0.2637 H   0  0  0  0  0  0  0  0  0  0  0  0
    8.8035   -0.5322    2.4218 H   0  0  0  0  0  0  0  0  0  0  0  0
    9.5829   -2.2639    0.9458 H   0  0  0  0  0  0  0  0  0  0  0  0
    9.3654   -3.5812   -1.1274 H   0  0  0  0  0  0  0  0  0  0  0  0
    8.1657   -4.0710   -3.2219 H   0  0  0  0  0  0  0  0  0  0  0  0
    6.1571   -2.7870   -3.8350 H   0  0  0  0  0  0  0  0  0  0  0  0
    4.5338   -1.0270   -3.3335 H   0  0  0  0  0  0  0  0  0  0  0  0
    4.5194    2.4086   -3.0958 H   0  0  0  0  0  0  0  0  0  0  0  0
    2.5622    3.6718   -3.9053 H   0  0  0  0  0  0  0  0  0  0  0  0
    0.2861    2.9491   -3.3151 H   0  0  0  0  0  0  0  0  0  0  0  0
   -1.2234    1.4101   -2.1889 H   0  0  0  0  0  0  0  0  0  0  0  0
   -2.7574   -0.1069   -1.0651 H   0  0  0  0  0  0  0  0  0  0  0  0
   -4.9840   -2.8811   -1.5839 H   0  0  0  0  0  0  0  0  0  0  0  0
   -9.7736    0.2967   -2.8936 H   0  0  0  0  0  0  0  0  0  0  0  0
   -8.8618   -1.6837   -4.0381 H   0  0  0  0  0  0  0  0  0  0  0  0
   -6.8153   -2.7705   -3.2039 H   0  0  0  0  0  0  0  0  0  0  0  0
   -9.6390    1.9589   -1.0778 H   0  0  0  0  0  0  0  0  0  0  0  0
   -8.5448    2.8562    0.8673 H   0  0  0  0  0  0  0  0  0  0  0  0
   -3.6894   -0.3196    2.2686 H   0  0  0  0  0  0  0  0  0  0  0  0
   -3.4868    1.2574    4.0352 H   0  0  0  0  0  0  0  0  0  0  0  0
   -4.2955    3.2287    5.2589 H   0  0  0  0  0  0  0  0  0  0  0  0
   -6.3478    4.3987    4.4997 H   0  0  0  0  0  0  0  0  0  0  0  0
   -7.5651    3.6111    2.5519 H   0  0  0  0  0  0  0  0  0  0  0  0
   -4.6575   -3.6965    1.6086 H   0  0  0  0  0  0  0  0  0  0  0  0
   -2.6979   -4.9587    2.4126 H   0  0  0  0  0  0  0  0  0  0  0  0
   -0.4253   -4.2481    1.7981 H   0  0  0  0  0  0  0  0  0  0  0  0
    1.0785   -2.7253    0.6495 H   0  0  0  0  0  0  0  0  0  0  0  0
    2.6104   -1.2144   -0.4785 H   0  0  0  0  0  0  0  0  0  0  0  0
  1  2  4  0
  2  3  4  0
  3  4  4  0
  4  5  4  0
  5  6  4  0
  5  7  4  0
  7  8  4  0
  8  9  4  0
  9 10  4  0
 10 11  4  0
 11 12  4  0
 12 13  4  0
 13 14  4  0
 14 15  4  0
 15 16  4  0
 16 17  4  0
 17 18  4  0
 17 19  4  0
 19 20  4  0
 20 21  1  0
 21 22  4  0
 22 23  4  0
 23 24  4  0
 24 25  4  0
 25 26  4  0
 26 27  4  0
 27 28  4  0
 28 29  4  0
 29 30  4  0
 30 31  1  0
 31 32  4  0
 32 33  4  0
 33 34  4  0
 34 35  4  0
 35 36  4  0
 36 37  4  0
 37 38  4  0
 35 39  4  0
 39 40  4  0
 40 41  4  0
 41 42  4  0
 42 43  4  0
 43 44  4  0
 44 45  4  0
 45 46  4  0
 46 47  4  0
 47 48  4  0
 48 49  4  0
 49 50  4  0
 30 51  4  0
 51 52  4  0
 52 53  4  0
 53 54  4  0
 54 55  4  0
 55 56  4  0
 56 57  4  0
 57 58  4  0
  6  1  4  0
 20  8  4  0
 58 21  4  0
 10  4  4  0
 18 13  4  0
 58 25  4  0
 18  9  4  0
 56 27  4  0
 54 29  4  0
 43 31  4  0
 50 45  4  0
 38 33  4  0
 50 41  4  0
 42 34  4  0
  1 59  1  0
  2 60  1  0
  3 61  1  0
  6 62  1  0
  7 63  1  0
 11 64  1  0
 12 65  1  0
 14 66  1  0
 15 67  1  0
 16 68  1  0
 19 69  1  0
 22 70  1  0
 23 71  1  0
 24 72  1  0
 26 73  1  0
 28 74  1  0
 32 75  1  0
 36 76  1  0
 37 77  1  0
 38 78  1  0
 39 79  1  0
 40 80  1  0
 44 81  1  0
 46 82  1  0
 47 83  1  0
 48 84  1  0
 49 85  1  0
 51 86  1  0
 52 87  1  0
 53 88  1  0
 55 89  1  0
 57 90  1  0
M  END
