
     RDKit          3D

 62 69  0  0  0  0  0  0  0  0999 V2000
   -8.8871   -0.9187    1.1808 C   0  0  0  0  0  0  0  0  0  0  0  0
   -8.6129   -1.2725   -0.1369 C   0  0  0  0  0  0  0  0  0  0  0  0
   -7.4661   -0.7848   -0.7658 C   0  0  0  0  0  0  0  0  0  0  0  0
   -6.5789    0.0644   -0.0843 C   0  0  0  0  0  0  0  0  0  0  0  0
   -5.4210    0.5655   -0.7041 C   0  0  0  0  0  0  0  0  0  0  0  0
   -4.5359    1.4149   -0.0214 C   0  0  0  0  0  0  0  0  0  0  0  0
   -3.3335    1.9400   -0.6886 C   0  0  0  0  0  0  0  0  0  0  0  0
   -3.4772    3.0690   -1.5161 C   0  0  0  0  0  0  0  0  0  0  0  0
   -2.3815    3.6229   -2.1685 C   0  0  0  0  0  0  0  0  0  0  0  0
   -1.1214    3.0566   -2.0030 C   0  0  0  0  0  0  0  0  0  0  0  0
   -0.9377    1.9297   -1.1878 C   0  0  0  0  0  0  0  0  0  0  0  0
    0.3435    1.3732   -1.0335 C   0  0  0  0  0  0  0  0  0  0  0  0
    0.5660    0.2448   -0.2289 C   0  0  0  0  0  0  0  0  0  0  0  0
    1.8495   -0.3092   -0.0748 C   0  0  0  0  0  0  0  0  0  0  0  0
    2.0937   -1.4455    0.7329 C   0  0  0  0  0  0  0  0  0  0  0  0
    3.3846   -2.0250    0.9068 C   0  0  0  0  0  0  0  0  0  0  0  0
    4.5871   -1.4815    0.2555 C   0  0  0  0  0  0  0  0  0  0  0  0
    5.3236   -0.4493    0.8582 C   0  0  0  0  0  0  0  0  0  0  0  0
    6.4723    0.0823    0.2472 C   0  0  0  0  0  0  0  0  0  0  0  0
    7.2081    1.1178    0.8462 C   0  0  0  0  0  0  0  0  0  0  0  0
    8.3465    1.6358    0.2263 C   0  0  0  0  0  0  0  0  0  0  0  0
    8.7638    1.1258   -0.9995 C   0  0  0  0  0  0  0  0  0  0  0  0
    8.0438    0.0965   -1.6081 C   0  0  0  0  0  0  0  0  0  0  0  0
    6.8964   -0.4353   -0.9975 C   0  0  0  0  0  0  0  0  0  0  0  0
    6.1618   -1.4693   -1.5964 C   0  0  0  0  0  0  0  0  0  0  0  0
    5.0215   -1.9863   -0.9763 C   0  0  0  0  0  0  0  0  0  0  0  0
    3.5302   -3.1576    1.7283 C   0  0  0  0  0  0  0  0  0  0  0  0
    2.4340   -3.7196    2.3733 C   0  0  0  0  0  0  0  0  0  0  0  0
    1.1719   -3.1570    2.2068 C   0  0  0  0  0  0  0  0  0  0  0  0
    0.9864   -2.0274    1.3954 C   0  0  0  0  0  0  0  0  0  0  0  0
   -0.2959   -1.4732    1.2391 C   0  0  0  0  0  0  0  0  0  0  0  0
   -0.5191   -0.3436    0.4359 C   0  0  0  0  0  0  0  0  0  0  0  0
   -1.8023    0.2121    0.2821 C   0  0  0  0  0  0  0  0  0  0  0  0
   -2.0449    1.3531   -0.5203 C   0  0  0  0  0  0  0  0  0  0  0  0
   -4.8280    1.7643    1.3032 C   0  0  0  0  0  0  0  0  0  0  0  0
   -5.9738    1.2734    1.9343 C   0  0  0  0  0  0  0  0  0  0  0  0
   -6.8581    0.4237    1.2536 C   0  0  0  0  0  0  0  0  0  0  0  0
   -8.0154   -0.0760    1.8725 C   0  0  0  0  0  0  0  0  0  0  0  0
   -9.7796   -1.2974    1.6717 H   0  0  0  0  0  0  0  0  0  0  0  0
   -9.2911   -1.9279   -0.6772 H   0  0  0  0  0  0  0  0  0  0  0  0
   -7.2688   -1.0727   -1.7961 H   0  0  0  0  0  0  0  0  0  0  0  0
   -5.1998    0.2917   -1.7346 H   0  0  0  0  0  0  0  0  0  0  0  0
   -4.4577    3.5236   -1.6483 H   0  0  0  0  0  0  0  0  0  0  0  0
   -2.5087    4.4960   -2.8030 H   0  0  0  0  0  0  0  0  0  0  0  0
   -0.2759    3.5053   -2.5205 H   0  0  0  0  0  0  0  0  0  0  0  0
    1.1884    1.8274   -1.5497 H   0  0  0  0  0  0  0  0  0  0  0  0
    2.6803    0.1597   -0.6004 H   0  0  0  0  0  0  0  0  0  0  0  0
    4.9904   -0.0548    1.8169 H   0  0  0  0  0  0  0  0  0  0  0  0
    6.8978    1.5294    1.8041 H   0  0  0  0  0  0  0  0  0  0  0  0
    8.9060    2.4372    0.7015 H   0  0  0  0  0  0  0  0  0  0  0  0
    9.6500    1.5282   -1.4833 H   0  0  0  0  0  0  0  0  0  0  0  0
    8.3858   -0.2891   -2.5659 H   0  0  0  0  0  0  0  0  0  0  0  0
    6.4716   -1.8820   -2.5539 H   0  0  0  0  0  0  0  0  0  0  0  0
    4.4669   -2.7863   -1.4629 H   0  0  0  0  0  0  0  0  0  0  0  0
    4.5131   -3.6049    1.8665 H   0  0  0  0  0  0  0  0  0  0  0  0
    2.5626   -4.5945    3.0049 H   0  0  0  0  0  0  0  0  0  0  0  0
    0.3264   -3.6112    2.7196 H   0  0  0  0  0  0  0  0  0  0  0  0
   -1.1402   -1.9298    1.7538 H   0  0  0  0  0  0  0  0  0  0  0  0
   -2.6346   -0.2603    0.8019 H   0  0  0  0  0  0  0  0  0  0  0  0
   -4.1593    2.4248    1.8518 H   0  0  0  0  0  0  0  0  0  0  0  0
   -6.1710    1.5634    2.9639 H   0  0  0  0  0  0  0  0  0  0  0  0
   -8.2469    0.1900    2.9014 H   0  0  0  0  0  0  0  0  0  0  0  0
  1  2  4  0
  2  3  4  0
  3  4  4  0
  4  5  4  0
  5  6  4  0
  6  7  1  0
  7  8  4  0
  8  9  4  0
  9 10  4  0
 10 11  4  0
 11 12  4  0
 12 13  4  0
 13 14  4  0
 14 15  4  0
 15 16  4  0
 16 17  1  0
 17 18  4  0
 18 19  4  0
 19 20  4  0
 20 21  4  0
 21 22  4  0
 22 23  4  0
 23 24  4  0
 24 25  4  0
 25 26  4  0
 16 27  4  0
 27 28  4  0
 28 29  4  0
 29 30  4  0
 30 31  4  0
 31 32  4  0
 32 33  4  0
 33 34  4  0
  6 35  4  0
 35 36  4  0
 36 37  4  0
 37 38  4  0
 38  1  4  0
 37  4  4  0
 34  7  4  0
 34 11  4  0
 32 13  4  0
 30 15  4  0
 26 17  4  0
 24 19  4  0
  1 39  1  0
  2 40  1  0
  3 41  1  0
  5 42  1  0
  8 43  1  0
  9 44  1  0
 10 45  1  0
 12 46  1  0
 14 47  1  0
 18 48  1  0
 20 49  1  0
 21 50  1  0
 22 51  1  0
 23 52  1  0
 25 53  1  0
 26 54  1  0
 27 55  1  0
 28 56  1  0
 29 57  1  0
 31 58  1  0
 33 59  1  0
 35 60  1  0
 36 61  1  0
 38 62  1  0
M  END
