
     RDKit          3D

 62 69  0  0  0  0  0  0  0  0999 V2000
   -7.0916   -1.9872    0.6509 C   0  0  0  0  0  0  0  0  0  0  0  0
   -7.3225   -0.9793   -0.2839 C   0  0  0  0  0  0  0  0  0  0  0  0
   -6.4881    0.1490   -0.3536 C   0  0  0  0  0  0  0  0  0  0  0  0
   -6.7370    1.1511   -1.3031 C   0  0  0  0  0  0  0  0  0  0  0  0
   -5.9215    2.2759   -1.3873 C   0  0  0  0  0  0  0  0  0  0  0  0
   -4.8431    2.4134   -0.5202 C   0  0  0  0  0  0  0  0  0  0  0  0
   -4.5586    1.4286    0.4444 C   0  0  0  0  0  0  0  0  0  0  0  0
   -3.3946    1.6386    1.3317 C   0  0  0  0  0  0  0  0  0  0  0  0
   -3.5872    2.3752    2.5152 C   0  0  0  0  0  0  0  0  0  0  0  0
   -2.5327    2.6112    3.3901 C   0  0  0  0  0  0  0  0  0  0  0  0
   -1.2665    2.1150    3.0948 C   0  0  0  0  0  0  0  0  0  0  0  0
   -1.0351    1.3770    1.9242 C   0  0  0  0  0  0  0  0  0  0  0  0
    0.2500    0.8829    1.6437 C   0  0  0  0  0  0  0  0  0  0  0  0
    0.5173    0.1387    0.4839 C   0  0  0  0  0  0  0  0  0  0  0  0
    1.8030   -0.3577    0.2061 C   0  0  0  0  0  0  0  0  0  0  0  0
    2.0906   -1.1107   -0.9571 C   0  0  0  0  0  0  0  0  0  0  0  0
    3.3847   -1.6260   -1.2611 C   0  0  0  0  0  0  0  0  0  0  0  0
    4.5464   -1.4233   -0.3693 C   0  0  0  0  0  0  0  0  0  0  0  0
    5.3985   -0.2854   -0.4714 C   0  0  0  0  0  0  0  0  0  0  0  0
    5.2130    0.7464   -1.4217 C   0  0  0  0  0  0  0  0  0  0  0  0
    6.0702    1.8469   -1.4877 C   0  0  0  0  0  0  0  0  0  0  0  0
    7.1372    1.9467   -0.6051 C   0  0  0  0  0  0  0  0  0  0  0  0
    7.3465    0.9469    0.3435 C   0  0  0  0  0  0  0  0  0  0  0  0
    6.4929   -0.1663    0.4229 C   0  0  0  0  0  0  0  0  0  0  0  0
    6.7202   -1.1605    1.3861 C   0  0  0  0  0  0  0  0  0  0  0  0
    5.8853   -2.2702    1.4803 C   0  0  0  0  0  0  0  0  0  0  0  0
    4.8088   -2.4001    0.6096 C   0  0  0  0  0  0  0  0  0  0  0  0
    3.5771   -2.3637   -2.4439 C   0  0  0  0  0  0  0  0  0  0  0  0
    2.5235   -2.5953   -3.3212 C   0  0  0  0  0  0  0  0  0  0  0  0
    1.2584   -2.0947   -3.0284 C   0  0  0  0  0  0  0  0  0  0  0  0
    1.0273   -1.3560   -1.8581 C   0  0  0  0  0  0  0  0  0  0  0  0
   -0.2572   -0.8596   -1.5789 C   0  0  0  0  0  0  0  0  0  0  0  0
   -0.5246   -0.1159   -0.4189 C   0  0  0  0  0  0  0  0  0  0  0  0
   -1.8106    0.3792   -0.1404 C   0  0  0  0  0  0  0  0  0  0  0  0
   -2.0990    1.1293    1.0245 C   0  0  0  0  0  0  0  0  0  0  0  0
   -5.3912    0.2753    0.5366 C   0  0  0  0  0  0  0  0  0  0  0  0
   -5.1838   -0.7649    1.4732 C   0  0  0  0  0  0  0  0  0  0  0  0
   -6.0221   -1.8804    1.5295 C   0  0  0  0  0  0  0  0  0  0  0  0
   -7.7463   -2.8536    0.6908 H   0  0  0  0  0  0  0  0  0  0  0  0
   -8.1653   -1.0824   -0.9641 H   0  0  0  0  0  0  0  0  0  0  0  0
   -7.5759    1.0615   -1.9901 H   0  0  0  0  0  0  0  0  0  0  0  0
   -6.1259    3.0441   -2.1282 H   0  0  0  0  0  0  0  0  0  0  0  0
   -4.2105    3.2962   -0.5965 H   0  0  0  0  0  0  0  0  0  0  0  0
   -4.5746    2.7655    2.7559 H   0  0  0  0  0  0  0  0  0  0  0  0
   -2.6967    3.1807    4.3009 H   0  0  0  0  0  0  0  0  0  0  0  0
   -0.4537    2.3102    3.7917 H   0  0  0  0  0  0  0  0  0  0  0  0
    1.0616    1.0801    2.3426 H   0  0  0  0  0  0  0  0  0  0  0  0
    2.6012   -0.1486    0.9168 H   0  0  0  0  0  0  0  0  0  0  0  0
    4.3857    0.7026   -2.1277 H   0  0  0  0  0  0  0  0  0  0  0  0
    5.8995    2.6229   -2.2293 H   0  0  0  0  0  0  0  0  0  0  0  0
    7.8063    2.8014   -0.6526 H   0  0  0  0  0  0  0  0  0  0  0  0
    8.1878    1.0442    1.0264 H   0  0  0  0  0  0  0  0  0  0  0  0
    7.5574   -1.0766    2.0759 H   0  0  0  0  0  0  0  0  0  0  0  0
    6.0740   -3.0326    2.2314 H   0  0  0  0  0  0  0  0  0  0  0  0
    4.1599   -3.2704    0.6938 H   0  0  0  0  0  0  0  0  0  0  0  0
    4.5632   -2.7588   -2.6820 H   0  0  0  0  0  0  0  0  0  0  0  0
    2.6874   -3.1653   -4.2316 H   0  0  0  0  0  0  0  0  0  0  0  0
    0.4460   -2.2869   -3.7265 H   0  0  0  0  0  0  0  0  0  0  0  0
   -1.0686   -1.0560   -2.2783 H   0  0  0  0  0  0  0  0  0  0  0  0
   -2.6088    0.1703   -0.8512 H   0  0  0  0  0  0  0  0  0  0  0  0
   -4.3537   -0.7161    2.1756 H   0  0  0  0  0  0  0  0  0  0  0  0
   -5.8341   -2.6626    2.2603 H   0  0  0  0  0  0  0  0  0  0  0  0
  1  2  4  0
  2  3  4  0
  3  4  4  0
  4  5  4  0
  5  6  4  0
  6  7  4  0
  7  8  1  0
  8  9  4  0
  9 10  4  0
 10 11  4  0
 11 12  4  0
 12 13  4  0
 13 14  4  0
 14 15  4  0
 15 16  4  0
 16 17  4  0
 17 18  1  0
 18 19  4  0
 19 20  4  0
 20 21  4  0
 21 22  4  0
 22 23  4  0
 23 24  4  0
 24 25  4  0
 25 26  4  0
 26 27  4  0
 17 28  4  0
 28 29  4  0
 29 30  4  0
 30 31  4  0
 31 32  4  0
 32 33  4  0
 33 34  4  0
 34 35  4  0
  7 36  4  0
 36 37  4  0
 37 38  4  0
 38  1  4  0
 36  3  4  0
 35  8  4  0
 35 12  4  0
 33 14  4  0
 31 16  4  0
 27 18  4  0
 24 19  4  0
  1 39  1  0
  2 40  1  0
  4 41  1  0
  5 42  1  0
  6 43  1  0
  9 44  1  0
 10 45  1  0
 11 46  1  0
 13 47  1  0
 15 48  1  0
 20 49  1  0
 21 50  1  0
 22 51  1  0
 23 52  1  0
 25 53  1  0
 26 54  1  0
 27 55  1  0
 28 56  1  0
 29 57  1  0
 30 58  1  0
 32 59  1  0
 34 60  1  0
 37 61  1  0
 38 62  1  0
M  END
