
     RDKit          3D

 96107  0  0  0  0  0  0  0  0999 V2000
   -5.9029   -1.9360    1.6199 C   0  0  0  0  0  0  0  0  0  0  0  0
   -4.6931   -2.3022    0.9828 C   0  0  0  0  0  0  0  0  0  0  0  0
   -4.3275   -1.9470   -0.3740 C   0  0  0  0  0  0  0  0  0  0  0  0
   -3.0235   -2.4008   -0.8955 C   0  0  0  0  0  0  0  0  0  0  0  0
   -2.9778   -3.6252   -1.5866 C   0  0  0  0  0  0  0  0  0  0  0  0
   -1.7807   -4.1128   -2.0985 C   0  0  0  0  0  0  0  0  0  0  0  0
   -0.6081   -3.3838   -1.9249 C   0  0  0  0  0  0  0  0  0  0  0  0
   -0.6136   -2.1590   -1.2403 C   0  0  0  0  0  0  0  0  0  0  0  0
    0.5813   -1.4385   -1.0723 C   0  0  0  0  0  0  0  0  0  0  0  0
    0.6123   -0.2098   -0.3942 C   0  0  0  0  0  0  0  0  0  0  0  0
    1.8091    0.5083   -0.2243 C   0  0  0  0  0  0  0  0  0  0  0  0
    1.8602    1.7485    0.4560 C   0  0  0  0  0  0  0  0  0  0  0  0
    3.0606    2.4938    0.6438 C   0  0  0  0  0  0  0  0  0  0  0  0
    4.3673    2.0245    0.1432 C   0  0  0  0  0  0  0  0  0  0  0  0
    5.1553    1.1806    0.9735 C   0  0  0  0  0  0  0  0  0  0  0  0
    6.3484    0.8173    0.3519 C   0  0  0  0  0  0  0  0  0  0  0  0
    7.3404   -0.0034    0.8394 C   0  0  0  0  0  0  0  0  0  0  0  0
    7.5629   -0.8005    2.0401 C   0  0  0  0  0  0  0  0  0  0  0  0
    6.5114   -1.4921    2.6570 C   0  0  0  0  0  0  0  0  0  0  0  0
    6.7340   -2.2517    3.8095 C   0  0  0  0  0  0  0  0  0  0  0  0
    8.0127   -2.3337    4.3562 C   0  0  0  0  0  0  0  0  0  0  0  0
    9.0705   -1.6609    3.7489 C   0  0  0  0  0  0  0  0  0  0  0  0
    8.8467   -0.9017    2.5971 C   0  0  0  0  0  0  0  0  0  0  0  0
    8.3494   -0.0683   -0.0949 O   0  0  0  0  0  0  0  0  0  0  0  0
    8.0004    0.7007   -1.1817 C   0  0  0  0  0  0  0  0  0  0  0  0
    8.9921    0.7417   -2.2494 C   0  0  0  0  0  0  0  0  0  0  0  0
    9.2549    1.9264   -2.9507 C   0  0  0  0  0  0  0  0  0  0  0  0
   10.2054    1.9542   -3.9756 C   0  0  0  0  0  0  0  0  0  0  0  0
   10.9069    0.7976   -4.3087 C   0  0  0  0  0  0  0  0  0  0  0  0
   10.6639   -0.3854   -3.6146 C   0  0  0  0  0  0  0  0  0  0  0  0
    9.7148   -0.4115   -2.5896 C   0  0  0  0  0  0  0  0  0  0  0  0
    6.7620    1.2532   -0.9450 C   0  0  0  0  0  0  0  0  0  0  0  0
    6.0179    2.0734   -1.7876 C   0  0  0  0  0  0  0  0  0  0  0  0
    4.7946    2.4405   -1.1775 C   0  0  0  0  0  0  0  0  0  0  0  0
    3.0152    3.7208    1.3298 C   0  0  0  0  0  0  0  0  0  0  0  0
    1.8157    4.2169    1.8286 C   0  0  0  0  0  0  0  0  0  0  0  0
    0.6411    3.4918    1.6501 C   0  0  0  0  0  0  0  0  0  0  0  0
    0.6468    2.2639    0.9708 C   0  0  0  0  0  0  0  0  0  0  0  0
   -0.5486    1.5448    0.8004 C   0  0  0  0  0  0  0  0  0  0  0  0
   -0.5799    0.3139    0.1257 C   0  0  0  0  0  0  0  0  0  0  0  0
   -1.7762   -0.4061   -0.0415 C   0  0  0  0  0  0  0  0  0  0  0  0
   -1.8259   -1.6487   -0.7176 C   0  0  0  0  0  0  0  0  0  0  0  0
   -5.1735   -1.1783   -1.2195 C   0  0  0  0  0  0  0  0  0  0  0  0
   -6.3639   -0.8368   -0.5806 C   0  0  0  0  0  0  0  0  0  0  0  0
   -7.4010   -0.0799   -1.0762 C   0  0  0  0  0  0  0  0  0  0  0  0
   -7.7220    0.5789   -2.3362 C   0  0  0  0  0  0  0  0  0  0  0  0
   -8.3561    1.8301   -2.3411 C   0  0  0  0  0  0  0  0  0  0  0  0
   -8.6641    2.4722   -3.5432 C   0  0  0  0  0  0  0  0  0  0  0  0
   -8.3460    1.8674   -4.7569 C   0  0  0  0  0  0  0  0  0  0  0  0
   -7.7255    0.6201   -4.7689 C   0  0  0  0  0  0  0  0  0  0  0  0
   -7.4169   -0.0209   -3.5656 C   0  0  0  0  0  0  0  0  0  0  0  0
   -8.3533    0.0528   -0.0913 O   0  0  0  0  0  0  0  0  0  0  0  0
   -7.9413   -0.6436    1.0223 C   0  0  0  0  0  0  0  0  0  0  0  0
   -8.8774   -0.6266    2.1400 C   0  0  0  0  0  0  0  0  0  0  0  0
   -9.6070    0.5340    2.4376 C   0  0  0  0  0  0  0  0  0  0  0  0
  -10.5054    0.5607    3.5075 C   0  0  0  0  0  0  0  0  0  0  0  0
  -10.6892   -0.5759    4.2912 C   0  0  0  0  0  0  0  0  0  0  0  0
   -9.9799   -1.7396    4.0023 C   0  0  0  0  0  0  0  0  0  0  0  0
   -9.0812   -1.7650    2.9318 C   0  0  0  0  0  0  0  0  0  0  0  0
   -6.7075   -1.1952    0.7596 C   0  0  0  0  0  0  0  0  0  0  0  0
   -6.1315   -2.1977    2.6428 H   0  0  0  0  0  0  0  0  0  0  0  0
   -3.9771   -2.8882    1.5640 H   0  0  0  0  0  0  0  0  0  0  0  0
   -3.8891   -4.2049   -1.7246 H   0  0  0  0  0  0  0  0  0  0  0  0
   -1.7600   -5.0599   -2.6311 H   0  0  0  0  0  0  0  0  0  0  0  0
    0.3182   -3.7828   -2.3330 H   0  0  0  0  0  0  0  0  0  0  0  0
    1.5088   -1.8420   -1.4769 H   0  0  0  0  0  0  0  0  0  0  0  0
    2.7258    0.0878   -0.6358 H   0  0  0  0  0  0  0  0  0  0  0  0
    4.8436    0.8751    1.9630 H   0  0  0  0  0  0  0  0  0  0  0  0
    5.5087   -1.4644    2.2377 H   0  0  0  0  0  0  0  0  0  0  0  0
    5.9071   -2.7823    4.2750 H   0  0  0  0  0  0  0  0  0  0  0  0
    8.1862   -2.9250    5.2516 H   0  0  0  0  0  0  0  0  0  0  0  0
   10.0710   -1.7257    4.1687 H   0  0  0  0  0  0  0  0  0  0  0  0
    9.6840   -0.3820    2.1350 H   0  0  0  0  0  0  0  0  0  0  0  0
    8.7374    2.8471   -2.6933 H   0  0  0  0  0  0  0  0  0  0  0  0
   10.4023    2.8811   -4.5082 H   0  0  0  0  0  0  0  0  0  0  0  0
   11.6472    0.8192   -5.1041 H   0  0  0  0  0  0  0  0  0  0  0  0
   11.2130   -1.2887   -3.8672 H   0  0  0  0  0  0  0  0  0  0  0  0
    9.5366   -1.3431   -2.0557 H   0  0  0  0  0  0  0  0  0  0  0  0
    6.2996    2.3937   -2.7802 H   0  0  0  0  0  0  0  0  0  0  0  0
    4.1208    3.0829   -1.7495 H   0  0  0  0  0  0  0  0  0  0  0  0
    3.9288    4.2942    1.4767 H   0  0  0  0  0  0  0  0  0  0  0  0
    1.7958    5.1664    2.3571 H   0  0  0  0  0  0  0  0  0  0  0  0
   -0.2868    3.8965    2.0496 H   0  0  0  0  0  0  0  0  0  0  0  0
   -1.4766    1.9508    1.2014 H   0  0  0  0  0  0  0  0  0  0  0  0
   -2.6942    0.0165    0.3653 H   0  0  0  0  0  0  0  0  0  0  0  0
   -4.8947   -0.8904   -2.2241 H   0  0  0  0  0  0  0  0  0  0  0  0
   -8.6112    2.3153   -1.4012 H   0  0  0  0  0  0  0  0  0  0  0  0
   -9.1535    3.4424   -3.5287 H   0  0  0  0  0  0  0  0  0  0  0  0
   -8.5869    2.3649   -5.6927 H   0  0  0  0  0  0  0  0  0  0  0  0
   -7.4871    0.1411   -5.7150 H   0  0  0  0  0  0  0  0  0  0  0  0
   -6.9532   -1.0035   -3.6015 H   0  0  0  0  0  0  0  0  0  0  0  0
   -9.4760    1.4299    1.8340 H   0  0  0  0  0  0  0  0  0  0  0  0
  -11.0624    1.4685    3.7239 H   0  0  0  0  0  0  0  0  0  0  0  0
  -11.3904   -0.5571    5.1215 H   0  0  0  0  0  0  0  0  0  0  0  0
  -10.1315   -2.6318    4.6042 H   0  0  0  0  0  0  0  0  0  0  0  0
   -8.5581   -2.6921    2.7110 H   0  0  0  0  0  0  0  0  0  0  0  0
  1  2  4  0
  2  3  4  0
  3  4  1  0
  4  5  4  0
  5  6  4  0
  6  7  4  0
  7  8  4  0
  8  9  4  0
  9 10  4  0
 10 11  4  0
 11 12  4  0
 12 13  4  0
 13 14  1  0
 14 15  4  0
 15 16  4  0
 16 17  4  0
 17 18  1  0
 18 19  4  0
 19 20  4  0
 20 21  4  0
 21 22  4  0
 22 23  4  0
 17 24  4  0
 24 25  4  0
 25 26  1  0
 26 27  4  0
 27 28  4  0
 28 29  4  0
 29 30  4  0
 30 31  4  0
 25 32  4  0
 32 33  4  0
 33 34  4  0
 13 35  4  0
 35 36  4  0
 36 37  4  0
 37 38  4  0
 38 39  4  0
 39 40  4  0
 40 41  4  0
 41 42  4  0
  3 43  4  0
 43 44  4  0
 44 45  4  0
 45 46  1  0
 46 47  4  0
 47 48  4  0
 48 49  4  0
 49 50  4  0
 50 51  4  0
 45 52  4  0
 52 53  4  0
 53 54  1  0
 54 55  4  0
 55 56  4  0
 56 57  4  0
 57 58  4  0
 58 59  4  0
 53 60  4  0
 60  1  4  0
 42  4  4  0
 60 44  4  0
 42  8  4  0
 51 46  4  0
 59 54  4  0
 40 10  4  0
 38 12  4  0
 34 14  4  0
 32 16  4  0
 23 18  4  0
 31 26  4  0
  1 61  1  0
  2 62  1  0
  5 63  1  0
  6 64  1  0
  7 65  1  0
  9 66  1  0
 11 67  1  0
 15 68  1  0
 19 69  1  0
 20 70  1  0
 21 71  1  0
 22 72  1  0
 23 73  1  0
 27 74  1  0
 28 75  1  0
 29 76  1  0
 30 77  1  0
 31 78  1  0
 33 79  1  0
 34 80  1  0
 35 81  1  0
 36 82  1  0
 37 83  1  0
 39 84  1  0
 41 85  1  0
 43 86  1  0
 47 87  1  0
 48 88  1  0
 49 89  1  0
 50 90  1  0
 51 91  1  0
 55 92  1  0
 56 93  1  0
 57 94  1  0
 58 95  1  0
 59 96  1  0
M  END
