
     RDKit          3D

 96107  0  0  0  0  0  0  0  0999 V2000
   -6.6675   -2.3480   -0.9151 C   0  0  0  0  0  0  0  0  0  0  0  0
   -6.3127   -1.3300    0.0009 C   0  0  0  0  0  0  0  0  0  0  0  0
   -5.5923   -0.3237   -0.6375 C   0  0  0  0  0  0  0  0  0  0  0  0
   -5.0762    0.8295   -0.0897 C   0  0  0  0  0  0  0  0  0  0  0  0
   -5.0742    1.4710    1.2181 C   0  0  0  0  0  0  0  0  0  0  0  0
   -6.2153    1.4692    2.0308 C   0  0  0  0  0  0  0  0  0  0  0  0
   -6.1997    2.0913    3.2827 C   0  0  0  0  0  0  0  0  0  0  0  0
   -5.0432    2.7245    3.7340 C   0  0  0  0  0  0  0  0  0  0  0  0
   -3.9030    2.7399    2.9341 C   0  0  0  0  0  0  0  0  0  0  0  0
   -3.9210    2.1186    1.6838 C   0  0  0  0  0  0  0  0  0  0  0  0
   -4.4150    1.5269   -1.0772 O   0  0  0  0  0  0  0  0  0  0  0  0
   -4.5047    0.8140   -2.2479 C   0  0  0  0  0  0  0  0  0  0  0  0
   -3.8208    1.4182   -3.3811 C   0  0  0  0  0  0  0  0  0  0  0  0
   -4.3341    2.6204   -3.8984 C   0  0  0  0  0  0  0  0  0  0  0  0
   -3.7202    3.2560   -4.9772 C   0  0  0  0  0  0  0  0  0  0  0  0
   -2.5811    2.7012   -5.5494 C   0  0  0  0  0  0  0  0  0  0  0  0
   -2.0549    1.5124   -5.0413 C   0  0  0  0  0  0  0  0  0  0  0  0
   -2.6572    0.8519   -3.9518 C   0  0  0  0  0  0  0  0  0  0  0  0
   -2.0377   -0.3946   -3.4494 C   0  0  0  0  0  0  0  0  0  0  0  0
   -2.2112   -1.5697   -4.2063 C   0  0  0  0  0  0  0  0  0  0  0  0
   -1.6716   -2.7801   -3.7869 C   0  0  0  0  0  0  0  0  0  0  0  0
   -0.9403   -2.8357   -2.6048 C   0  0  0  0  0  0  0  0  0  0  0  0
   -0.7295   -1.6846   -1.8308 C   0  0  0  0  0  0  0  0  0  0  0  0
    0.0228   -1.7617   -0.6461 C   0  0  0  0  0  0  0  0  0  0  0  0
    0.2665   -0.6318    0.1504 C   0  0  0  0  0  0  0  0  0  0  0  0
    1.0234   -0.7103    1.3332 C   0  0  0  0  0  0  0  0  0  0  0  0
    1.2913    0.4197    2.1438 C   0  0  0  0  0  0  0  0  0  0  0  0
    2.0692    0.3718    3.3399 C   0  0  0  0  0  0  0  0  0  0  0  0
    2.7033   -0.8719    3.8316 C   0  0  0  0  0  0  0  0  0  0  0  0
    2.1321   -1.5287    4.9401 C   0  0  0  0  0  0  0  0  0  0  0  0
    2.6754   -2.7136    5.4396 C   0  0  0  0  0  0  0  0  0  0  0  0
    3.7992   -3.2688    4.8377 C   0  0  0  0  0  0  0  0  0  0  0  0
    4.3820   -2.6368    3.7393 C   0  0  0  0  0  0  0  0  0  0  0  0
    3.8532   -1.4373    3.2322 C   0  0  0  0  0  0  0  0  0  0  0  0
    4.5131   -0.8274    2.0873 C   0  0  0  0  0  0  0  0  0  0  0  0
    5.2473    0.3103    1.8582 C   0  0  0  0  0  0  0  0  0  0  0  0
    5.6144    1.2843    2.7809 C   0  0  0  0  0  0  0  0  0  0  0  0
    6.3481    2.3142    2.1495 C   0  0  0  0  0  0  0  0  0  0  0  0
    6.6648    2.3385    0.7454 C   0  0  0  0  0  0  0  0  0  0  0  0
    6.2870    1.3320   -0.1740 C   0  0  0  0  0  0  0  0  0  0  0  0
    5.5733    0.3229    0.4678 C   0  0  0  0  0  0  0  0  0  0  0  0
    5.0390   -0.8210   -0.0824 C   0  0  0  0  0  0  0  0  0  0  0  0
    5.0100   -1.4431   -1.3995 C   0  0  0  0  0  0  0  0  0  0  0  0
    6.1461   -1.4528   -2.2205 C   0  0  0  0  0  0  0  0  0  0  0  0
    6.1082   -2.0488   -3.4845 C   0  0  0  0  0  0  0  0  0  0  0  0
    4.9342   -2.6451   -3.9401 C   0  0  0  0  0  0  0  0  0  0  0  0
    3.7994   -2.6498   -3.1319 C   0  0  0  0  0  0  0  0  0  0  0  0
    3.8383   -2.0536   -1.8687 C   0  0  0  0  0  0  0  0  0  0  0  0
    4.3943   -1.5271    0.9103 O   0  0  0  0  0  0  0  0  0  0  0  0
    2.2453    1.5474    4.0957 C   0  0  0  0  0  0  0  0  0  0  0  0
    1.6967    2.7561    3.6824 C   0  0  0  0  0  0  0  0  0  0  0  0
    0.9559    2.8095    2.5062 C   0  0  0  0  0  0  0  0  0  0  0  0
    0.7442    1.6585    1.7327 C   0  0  0  0  0  0  0  0  0  0  0  0
   -0.0131    1.7353    0.5511 C   0  0  0  0  0  0  0  0  0  0  0  0
   -0.2546    0.6059   -0.2470 C   0  0  0  0  0  0  0  0  0  0  0  0
   -1.0079    0.6844   -1.4322 C   0  0  0  0  0  0  0  0  0  0  0  0
   -1.2711   -0.4446   -2.2460 C   0  0  0  0  0  0  0  0  0  0  0  0
   -5.2388   -0.3242   -2.0218 C   0  0  0  0  0  0  0  0  0  0  0  0
   -5.5836   -1.3094   -2.9411 C   0  0  0  0  0  0  0  0  0  0  0  0
   -6.3244   -2.3364   -2.3131 C   0  0  0  0  0  0  0  0  0  0  0  0
   -7.2355   -3.2007   -0.5403 H   0  0  0  0  0  0  0  0  0  0  0  0
   -6.5690   -1.3628    1.0497 H   0  0  0  0  0  0  0  0  0  0  0  0
   -7.1351    1.0004    1.6900 H   0  0  0  0  0  0  0  0  0  0  0  0
   -7.0930    2.0862    3.9019 H   0  0  0  0  0  0  0  0  0  0  0  0
   -5.0316    3.2095    4.7064 H   0  0  0  0  0  0  0  0  0  0  0  0
   -2.9989    3.2343    3.2791 H   0  0  0  0  0  0  0  0  0  0  0  0
   -3.0234    2.1339    1.0701 H   0  0  0  0  0  0  0  0  0  0  0  0
   -5.2208    3.0672   -3.4518 H   0  0  0  0  0  0  0  0  0  0  0  0
   -4.1293    4.1856   -5.3643 H   0  0  0  0  0  0  0  0  0  0  0  0
   -2.0949    3.1960   -6.3861 H   0  0  0  0  0  0  0  0  0  0  0  0
   -1.1535    1.1000   -5.4921 H   0  0  0  0  0  0  0  0  0  0  0  0
   -2.7863   -1.5410   -5.1299 H   0  0  0  0  0  0  0  0  0  0  0  0
   -1.8236   -3.6796   -4.3769 H   0  0  0  0  0  0  0  0  0  0  0  0
   -0.5296   -3.7932   -2.2910 H   0  0  0  0  0  0  0  0  0  0  0  0
    0.4324   -2.7218   -0.3362 H   0  0  0  0  0  0  0  0  0  0  0  0
    1.4189   -1.6817    1.6255 H   0  0  0  0  0  0  0  0  0  0  0  0
    1.2426   -1.1162    5.4138 H   0  0  0  0  0  0  0  0  0  0  0  0
    2.2148   -3.2047    6.2930 H   0  0  0  0  0  0  0  0  0  0  0  0
    4.2219   -4.1949    5.2187 H   0  0  0  0  0  0  0  0  0  0  0  0
    5.2589   -3.0821    3.2724 H   0  0  0  0  0  0  0  0  0  0  0  0
    5.3776    1.2785    3.8345 H   0  0  0  0  0  0  0  0  0  0  0  0
    6.6930    3.1486    2.7614 H   0  0  0  0  0  0  0  0  0  0  0  0
    7.2299    3.1921    0.3686 H   0  0  0  0  0  0  0  0  0  0  0  0
    6.5228    1.3738   -1.2273 H   0  0  0  0  0  0  0  0  0  0  0  0
    7.0785   -1.0118   -1.8766 H   0  0  0  0  0  0  0  0  0  0  0  0
    6.9974   -2.0522   -4.1095 H   0  0  0  0  0  0  0  0  0  0  0  0
    4.9046   -3.1102   -4.9220 H   0  0  0  0  0  0  0  0  0  0  0  0
    2.8820   -3.1164   -3.4807 H   0  0  0  0  0  0  0  0  0  0  0  0
    2.9429   -2.0608   -1.2501 H   0  0  0  0  0  0  0  0  0  0  0  0
    2.8302    1.5206    5.0131 H   0  0  0  0  0  0  0  0  0  0  0  0
    1.8503    3.6557    4.2719 H   0  0  0  0  0  0  0  0  0  0  0  0
    0.5378    3.7643    2.1942 H   0  0  0  0  0  0  0  0  0  0  0  0
   -0.4283    2.6944    0.2451 H   0  0  0  0  0  0  0  0  0  0  0  0
   -1.4032    1.6557   -1.7249 H   0  0  0  0  0  0  0  0  0  0  0  0
   -5.3281   -1.3130   -3.9903 H   0  0  0  0  0  0  0  0  0  0  0  0
   -6.6538   -3.1786   -2.9229 H   0  0  0  0  0  0  0  0  0  0  0  0
  1  2  4  0
  2  3  4  0
  3  4  4  0
  4  5  1  0
  5  6  4  0
  6  7  4  0
  7  8  4  0
  8  9  4  0
  9 10  4  0
  4 11  4  0
 11 12  4  0
 12 13  1  0
 13 14  4  0
 14 15  4  0
 15 16  4  0
 16 17  4  0
 17 18  4  0
 18 19  1  0
 19 20  4  0
 20 21  4  0
 21 22  4  0
 22 23  4  0
 23 24  4  0
 24 25  4  0
 25 26  4  0
 26 27  4  0
 27 28  4  0
 28 29  1  0
 29 30  4  0
 30 31  4  0
 31 32  4  0
 32 33  4  0
 33 34  4  0
 34 35  1  0
 35 36  4  0
 36 37  4  0
 37 38  4  0
 38 39  4  0
 39 40  4  0
 40 41  4  0
 41 42  4  0
 42 43  1  0
 43 44  4  0
 44 45  4  0
 45 46  4  0
 46 47  4  0
 47 48  4  0
 42 49  4  0
 28 50  4  0
 50 51  4  0
 51 52  4  0
 52 53  4  0
 53 54  4  0
 54 55  4  0
 55 56  4  0
 56 57  4  0
 12 58  4  0
 58 59  4  0
 59 60  4  0
 60  1  4  0
 58  3  4  0
 10  5  4  0
 18 13  4  0
 57 19  4  0
 57 23  4  0
 55 25  4  0
 53 27  4  0
 34 29  4  0
 49 35  4  0
 41 36  4  0
 48 43  4  0
  1 61  1  0
  2 62  1  0
  6 63  1  0
  7 64  1  0
  8 65  1  0
  9 66  1  0
 10 67  1  0
 14 68  1  0
 15 69  1  0
 16 70  1  0
 17 71  1  0
 20 72  1  0
 21 73  1  0
 22 74  1  0
 24 75  1  0
 26 76  1  0
 30 77  1  0
 31 78  1  0
 32 79  1  0
 33 80  1  0
 37 81  1  0
 38 82  1  0
 39 83  1  0
 40 84  1  0
 44 85  1  0
 45 86  1  0
 46 87  1  0
 47 88  1  0
 48 89  1  0
 50 90  1  0
 51 91  1  0
 52 92  1  0
 54 93  1  0
 56 94  1  0
 59 95  1  0
 60 96  1  0
M  END
