
     RDKit          3D

 90103  0  0  0  0  0  0  0  0999 V2000
   14.9111   -1.0675   -2.4067 C   0  0  0  0  0  0  0  0  0  0  0  0
   14.3693   -0.7307   -3.6401 C   0  0  0  0  0  0  0  0  0  0  0  0
   13.0590   -0.2551   -3.7088 C   0  0  0  0  0  0  0  0  0  0  0  0
   12.2806   -0.1101   -2.5663 C   0  0  0  0  0  0  0  0  0  0  0  0
   11.0207    0.3517   -2.6710 N   0  0  0  0  0  0  0  0  0  0  0  0
   10.3080    0.4746   -1.5383 C   0  0  0  0  0  0  0  0  0  0  0  0
    9.0067    0.9463   -1.5954 C   0  0  0  0  0  0  0  0  0  0  0  0
    8.2295    1.0918   -0.4579 C   0  0  0  0  0  0  0  0  0  0  0  0
    6.9732    1.5568   -0.5659 N   0  0  0  0  0  0  0  0  0  0  0  0
    6.2561    1.6842    0.5653 C   0  0  0  0  0  0  0  0  0  0  0  0
    4.9533    2.1631    0.5025 C   0  0  0  0  0  0  0  0  0  0  0  0
    4.1650    2.3155    1.6522 C   0  0  0  0  0  0  0  0  0  0  0  0
    2.7916    2.8342    1.5596 C   0  0  0  0  0  0  0  0  0  0  0  0
    2.6180    4.2252    1.4370 C   0  0  0  0  0  0  0  0  0  0  0  0
    1.3476    4.7838    1.3569 C   0  0  0  0  0  0  0  0  0  0  0  0
    0.2278    3.9594    1.3987 C   0  0  0  0  0  0  0  0  0  0  0  0
    0.3598    2.5675    1.5161 C   0  0  0  0  0  0  0  0  0  0  0  0
   -0.7843    1.7522    1.5545 C   0  0  0  0  0  0  0  0  0  0  0  0
   -0.6941    0.3558    1.6673 C   0  0  0  0  0  0  0  0  0  0  0  0
   -1.8408   -0.4591    1.7097 C   0  0  0  0  0  0  0  0  0  0  0  0
   -1.7677   -1.8686    1.8231 C   0  0  0  0  0  0  0  0  0  0  0  0
   -2.9113   -2.7197    1.8732 C   0  0  0  0  0  0  0  0  0  0  0  0
   -4.2872   -2.2018    1.8234 C   0  0  0  0  0  0  0  0  0  0  0  0
   -4.9788   -2.1129    0.6064 C   0  0  0  0  0  0  0  0  0  0  0  0
   -6.2858   -1.6438    0.5373 C   0  0  0  0  0  0  0  0  0  0  0  0
   -6.9087   -1.5780   -0.6537 N   0  0  0  0  0  0  0  0  0  0  0  0
   -8.1738   -1.1232   -0.6717 C   0  0  0  0  0  0  0  0  0  0  0  0
   -8.8571   -1.0413   -1.8743 C   0  0  0  0  0  0  0  0  0  0  0  0
  -10.1628   -0.5834   -1.9459 C   0  0  0  0  0  0  0  0  0  0  0  0
  -10.7833   -0.5248   -3.1368 N   0  0  0  0  0  0  0  0  0  0  0  0
  -12.0518   -0.0756   -3.1560 C   0  0  0  0  0  0  0  0  0  0  0  0
  -12.7370    0.0026   -4.3625 C   0  0  0  0  0  0  0  0  0  0  0  0
  -14.0528    0.4635   -4.4218 C   0  0  0  0  0  0  0  0  0  0  0  0
  -14.6952    0.8534   -3.2541 C   0  0  0  0  0  0  0  0  0  0  0  0
  -14.0154    0.7785   -2.0377 C   0  0  0  0  0  0  0  0  0  0  0  0
  -12.7048    0.3207   -1.9685 C   0  0  0  0  0  0  0  0  0  0  0  0
  -12.0804    0.2620   -0.7777 N   0  0  0  0  0  0  0  0  0  0  0  0
  -10.8141   -0.1884   -0.7616 C   0  0  0  0  0  0  0  0  0  0  0  0
  -10.1302   -0.2688    0.4406 C   0  0  0  0  0  0  0  0  0  0  0  0
   -8.8247   -0.7276    0.5121 C   0  0  0  0  0  0  0  0  0  0  0  0
   -8.2044   -0.7892    1.7032 N   0  0  0  0  0  0  0  0  0  0  0  0
   -6.9390   -1.2458    1.7229 C   0  0  0  0  0  0  0  0  0  0  0  0
   -6.2585   -1.3314    2.9296 C   0  0  0  0  0  0  0  0  0  0  0  0
   -4.9461   -1.8047    2.9898 C   0  0  0  0  0  0  0  0  0  0  0  0
   -2.7342   -4.1116    1.9798 C   0  0  0  0  0  0  0  0  0  0  0  0
   -1.4616   -4.6690    2.0389 C   0  0  0  0  0  0  0  0  0  0  0  0
   -0.3434   -3.8429    1.9944 C   0  0  0  0  0  0  0  0  0  0  0  0
   -0.4791   -2.4511    1.8879 C   0  0  0  0  0  0  0  0  0  0  0  0
    0.6644   -1.6359    1.8458 C   0  0  0  0  0  0  0  0  0  0  0  0
    0.5729   -0.2398    1.7379 C   0  0  0  0  0  0  0  0  0  0  0  0
    1.7197    0.5742    1.6985 C   0  0  0  0  0  0  0  0  0  0  0  0
    1.6470    1.9843    1.5944 C   0  0  0  0  0  0  0  0  0  0  0  0
    4.7227    1.9759    2.8879 C   0  0  0  0  0  0  0  0  0  0  0  0
    6.0303    1.4919    2.9599 C   0  0  0  0  0  0  0  0  0  0  0  0
    6.8052    1.3406    1.8188 C   0  0  0  0  0  0  0  0  0  0  0  0
    8.0623    0.8734    1.9248 N   0  0  0  0  0  0  0  0  0  0  0  0
    8.7771    0.7490    0.7928 C   0  0  0  0  0  0  0  0  0  0  0  0
   10.0786    0.2769    0.8499 C   0  0  0  0  0  0  0  0  0  0  0  0
   10.8569    0.1327   -0.2875 C   0  0  0  0  0  0  0  0  0  0  0  0
   12.1149   -0.3287   -0.1797 N   0  0  0  0  0  0  0  0  0  0  0  0
   12.8314   -0.4526   -1.3123 C   0  0  0  0  0  0  0  0  0  0  0  0
   14.1373   -0.9254   -1.2539 C   0  0  0  0  0  0  0  0  0  0  0  0
   15.9304   -1.4394   -2.3369 H   0  0  0  0  0  0  0  0  0  0  0  0
   14.9595   -0.8359   -4.5471 H   0  0  0  0  0  0  0  0  0  0  0  0
   12.6328    0.0092   -4.6737 H   0  0  0  0  0  0  0  0  0  0  0  0
    8.5831    1.2110   -2.5611 H   0  0  0  0  0  0  0  0  0  0  0  0
    4.5431    2.4223   -0.4720 H   0  0  0  0  0  0  0  0  0  0  0  0
    3.4862    4.8814    1.4070 H   0  0  0  0  0  0  0  0  0  0  0  0
    1.2299    5.8602    1.2638 H   0  0  0  0  0  0  0  0  0  0  0  0
   -0.7580    4.4161    1.3360 H   0  0  0  0  0  0  0  0  0  0  0  0
   -1.7683    2.2144    1.4941 H   0  0  0  0  0  0  0  0  0  0  0  0
   -2.8159    0.0218    1.6507 H   0  0  0  0  0  0  0  0  0  0  0  0
   -4.4886   -2.4187   -0.3164 H   0  0  0  0  0  0  0  0  0  0  0  0
   -8.3531   -1.3470   -2.7878 H   0  0  0  0  0  0  0  0  0  0  0  0
  -12.2331   -0.3033   -5.2763 H   0  0  0  0  0  0  0  0  0  0  0  0
  -14.5685    0.5157   -5.3771 H   0  0  0  0  0  0  0  0  0  0  0  0
  -15.7201    1.2146   -3.2845 H   0  0  0  0  0  0  0  0  0  0  0  0
  -14.5159    1.0830   -1.1217 H   0  0  0  0  0  0  0  0  0  0  0  0
  -10.6329    0.0353    1.3552 H   0  0  0  0  0  0  0  0  0  0  0  0
   -6.7621   -1.0265    3.8438 H   0  0  0  0  0  0  0  0  0  0  0  0
   -4.4429   -1.8635    3.9530 H   0  0  0  0  0  0  0  0  0  0  0  0
   -3.5991   -4.7714    2.0201 H   0  0  0  0  0  0  0  0  0  0  0  0
   -1.3407   -5.7459    2.1208 H   0  0  0  0  0  0  0  0  0  0  0  0
    0.6438   -4.2985    2.0429 H   0  0  0  0  0  0  0  0  0  0  0  0
    1.6489   -2.0984    1.8986 H   0  0  0  0  0  0  0  0  0  0  0  0
    2.6942    0.0912    1.7480 H   0  0  0  0  0  0  0  0  0  0  0  0
    4.1419    2.0854    3.8018 H   0  0  0  0  0  0  0  0  0  0  0  0
    6.4543    1.2296    3.9263 H   0  0  0  0  0  0  0  0  0  0  0  0
   10.5023    0.0125    1.8156 H   0  0  0  0  0  0  0  0  0  0  0  0
   14.5592   -1.1885   -0.2868 H   0  0  0  0  0  0  0  0  0  0  0  0
  1  2  4  0
  2  3  4  0
  3  4  4  0
  4  5  4  0
  5  6  4  0
  6  7  4  0
  7  8  4  0
  8  9  4  0
  9 10  4  0
 10 11  4  0
 11 12  4  0
 12 13  1  0
 13 14  4  0
 14 15  4  0
 15 16  4  0
 16 17  4  0
 17 18  4  0
 18 19  4  0
 19 20  4  0
 20 21  4  0
 21 22  4  0
 22 23  1  0
 23 24  4  0
 24 25  4  0
 25 26  4  0
 26 27  4  0
 27 28  4  0
 28 29  4  0
 29 30  4  0
 30 31  4  0
 31 32  4  0
 32 33  4  0
 33 34  4  0
 34 35  4  0
 35 36  4  0
 36 37  4  0
 37 38  4  0
 38 39  4  0
 39 40  4  0
 40 41  4  0
 41 42  4  0
 42 43  4  0
 43 44  4  0
 22 45  4  0
 45 46  4  0
 46 47  4  0
 47 48  4  0
 48 49  4  0
 49 50  4  0
 50 51  4  0
 51 52  4  0
 12 53  4  0
 53 54  4  0
 54 55  4  0
 55 56  4  0
 56 57  4  0
 57 58  4  0
 58 59  4  0
 59 60  4  0
 60 61  4  0
 61 62  4  0
 62  1  4  0
 61  4  4  0
 59  6  4  0
 57  8  4  0
 55 10  4  0
 52 13  4  0
 52 17  4  0
 50 19  4  0
 48 21  4  0
 44 23  4  0
 42 25  4  0
 40 27  4  0
 38 29  4  0
 36 31  4  0
  1 63  1  0
  2 64  1  0
  3 65  1  0
  7 66  1  0
 11 67  1  0
 14 68  1  0
 15 69  1  0
 16 70  1  0
 18 71  1  0
 20 72  1  0
 24 73  1  0
 28 74  1  0
 32 75  1  0
 33 76  1  0
 34 77  1  0
 35 78  1  0
 39 79  1  0
 43 80  1  0
 44 81  1  0
 45 82  1  0
 46 83  1  0
 47 84  1  0
 49 85  1  0
 51 86  1  0
 53 87  1  0
 54 88  1  0
 58 89  1  0
 62 90  1  0
M  END
