
     RDKit          3D

 90103  0  0  0  0  0  0  0  0999 V2000
   -4.7414    5.4909    3.2177 C   0  0  0  0  0  0  0  0  0  0  0  0
   -3.7518    4.6956    3.7803 C   0  0  0  0  0  0  0  0  0  0  0  0
   -3.5702    3.3930    3.3142 C   0  0  0  0  0  0  0  0  0  0  0  0
   -4.3601    2.8732    2.2960 C   0  0  0  0  0  0  0  0  0  0  0  0
   -4.1615    1.6141    1.8707 N   0  0  0  0  0  0  0  0  0  0  0  0
   -4.9392    1.1311    0.8738 C   0  0  0  0  0  0  0  0  0  0  0  0
   -5.9340    1.9528    0.3126 C   0  0  0  0  0  0  0  0  0  0  0  0
   -6.1444    3.2115    0.7355 N   0  0  0  0  0  0  0  0  0  0  0  0
   -5.3623    3.6790    1.7243 C   0  0  0  0  0  0  0  0  0  0  0  0
   -5.5383    4.9754    2.1944 C   0  0  0  0  0  0  0  0  0  0  0  0
   -6.7225    1.4641   -0.7101 C   0  0  0  0  0  0  0  0  0  0  0  0
   -6.5699    0.1869   -1.2126 C   0  0  0  0  0  0  0  0  0  0  0  0
   -7.3758   -0.2038   -2.2151 N   0  0  0  0  0  0  0  0  0  0  0  0
   -7.2150   -1.4474   -2.6998 C   0  0  0  0  0  0  0  0  0  0  0  0
   -8.0220   -1.8981   -3.7383 C   0  0  0  0  0  0  0  0  0  0  0  0
   -7.8789   -3.1833   -4.2634 C   0  0  0  0  0  0  0  0  0  0  0  0
   -6.9118   -4.0317   -3.7406 C   0  0  0  0  0  0  0  0  0  0  0  0
   -6.0984   -3.5864   -2.6981 C   0  0  0  0  0  0  0  0  0  0  0  0
   -6.2354   -2.3082   -2.1704 C   0  0  0  0  0  0  0  0  0  0  0  0
   -5.4353   -1.9100   -1.1663 N   0  0  0  0  0  0  0  0  0  0  0  0
   -5.5842   -0.6596   -0.6708 C   0  0  0  0  0  0  0  0  0  0  0  0
   -4.7730   -0.1763    0.3735 C   0  0  0  0  0  0  0  0  0  0  0  0
   -3.7217   -1.0496    0.9569 C   0  0  0  0  0  0  0  0  0  0  0  0
   -4.1118   -2.0470    1.8720 C   0  0  0  0  0  0  0  0  0  0  0  0
   -3.1684   -2.8637    2.4856 C   0  0  0  0  0  0  0  0  0  0  0  0
   -1.8170   -2.6926    2.2000 C   0  0  0  0  0  0  0  0  0  0  0  0
   -1.3888   -1.7126    1.2919 C   0  0  0  0  0  0  0  0  0  0  0  0
   -0.0181   -1.5431    1.0307 C   0  0  0  0  0  0  0  0  0  0  0  0
    0.4481   -0.5659    0.1365 C   0  0  0  0  0  0  0  0  0  0  0  0
    1.8208   -0.3708   -0.0987 C   0  0  0  0  0  0  0  0  0  0  0  0
    2.3099    0.6292   -0.9756 C   0  0  0  0  0  0  0  0  0  0  0  0
    3.6982    0.8835   -1.1970 C   0  0  0  0  0  0  0  0  0  0  0  0
    4.7669    0.1452   -0.4727 C   0  0  0  0  0  0  0  0  0  0  0  0
    4.9997    0.4261    0.8894 C   0  0  0  0  0  0  0  0  0  0  0  0
    4.2838    1.3632    1.5527 N   0  0  0  0  0  0  0  0  0  0  0  0
    4.5282    1.5669    2.8575 C   0  0  0  0  0  0  0  0  0  0  0  0
    3.7921    2.5136    3.5597 C   0  0  0  0  0  0  0  0  0  0  0  0
    4.0210    2.7496    4.9156 C   0  0  0  0  0  0  0  0  0  0  0  0
    5.0036    2.0262    5.5788 C   0  0  0  0  0  0  0  0  0  0  0  0
    5.7461    1.0736    4.8790 C   0  0  0  0  0  0  0  0  0  0  0  0
    5.5229    0.8320    3.5280 C   0  0  0  0  0  0  0  0  0  0  0  0
    6.2515   -0.0942    2.8795 N   0  0  0  0  0  0  0  0  0  0  0  0
    5.9926   -0.2958    1.5751 C   0  0  0  0  0  0  0  0  0  0  0  0
    6.7300   -1.2465    0.8975 C   0  0  0  0  0  0  0  0  0  0  0  0
    6.5270   -1.5223   -0.4405 C   0  0  0  0  0  0  0  0  0  0  0  0
    7.2956   -2.4606   -1.0212 N   0  0  0  0  0  0  0  0  0  0  0  0
    7.0873   -2.7242   -2.3231 C   0  0  0  0  0  0  0  0  0  0  0  0
    7.8566   -3.6853   -2.9698 C   0  0  0  0  0  0  0  0  0  0  0  0
    7.6648   -3.9811   -4.3204 C   0  0  0  0  0  0  0  0  0  0  0  0
    6.6857   -3.3044   -5.0359 C   0  0  0  0  0  0  0  0  0  0  0  0
    5.9098   -2.3385   -4.3936 C   0  0  0  0  0  0  0  0  0  0  0  0
    6.0966   -2.0379   -3.0494 C   0  0  0  0  0  0  0  0  0  0  0  0
    5.3344   -1.0996   -2.4613 N   0  0  0  0  0  0  0  0  0  0  0  0
    5.5316   -0.8242   -1.1506 C   0  0  0  0  0  0  0  0  0  0  0  0
    4.0787    1.8886   -2.1080 C   0  0  0  0  0  0  0  0  0  0  0  0
    3.1260    2.6419   -2.7852 C   0  0  0  0  0  0  0  0  0  0  0  0
    1.7738    2.4106   -2.5559 C   0  0  0  0  0  0  0  0  0  0  0  0
    1.3538    1.4187   -1.6580 C   0  0  0  0  0  0  0  0  0  0  0  0
   -0.0172    1.2174   -1.4290 C   0  0  0  0  0  0  0  0  0  0  0  0
   -0.4793    0.2446   -0.5301 C   0  0  0  0  0  0  0  0  0  0  0  0
   -1.8500    0.0726   -0.2743 C   0  0  0  0  0  0  0  0  0  0  0  0
   -2.3383   -0.8857    0.6464 C   0  0  0  0  0  0  0  0  0  0  0  0
   -4.8956    6.5077    3.5696 H   0  0  0  0  0  0  0  0  0  0  0  0
   -3.1208    5.0817    4.5768 H   0  0  0  0  0  0  0  0  0  0  0  0
   -2.7936    2.7669    3.7480 H   0  0  0  0  0  0  0  0  0  0  0  0
   -6.3136    5.5954    1.7512 H   0  0  0  0  0  0  0  0  0  0  0  0
   -7.4874    2.1088   -1.1376 H   0  0  0  0  0  0  0  0  0  0  0  0
   -8.7780   -1.2312   -4.1459 H   0  0  0  0  0  0  0  0  0  0  0  0
   -8.5203   -3.5150   -5.0760 H   0  0  0  0  0  0  0  0  0  0  0  0
   -6.7860   -5.0352   -4.1388 H   0  0  0  0  0  0  0  0  0  0  0  0
   -5.3385   -4.2468   -2.2864 H   0  0  0  0  0  0  0  0  0  0  0  0
   -5.1639   -2.1847    2.1130 H   0  0  0  0  0  0  0  0  0  0  0  0
   -3.4844   -3.6259    3.1923 H   0  0  0  0  0  0  0  0  0  0  0  0
   -1.0934   -3.3338    2.6984 H   0  0  0  0  0  0  0  0  0  0  0  0
    0.7042   -2.1739    1.5461 H   0  0  0  0  0  0  0  0  0  0  0  0
    2.5236   -1.0083    0.4325 H   0  0  0  0  0  0  0  0  0  0  0  0
    3.0230    3.0762    3.0351 H   0  0  0  0  0  0  0  0  0  0  0  0
    3.4324    3.4942    5.4457 H   0  0  0  0  0  0  0  0  0  0  0  0
    5.1942    2.1985    6.6352 H   0  0  0  0  0  0  0  0  0  0  0  0
    6.5155    0.5048    5.3952 H   0  0  0  0  0  0  0  0  0  0  0  0
    7.4979   -1.7972    1.4366 H   0  0  0  0  0  0  0  0  0  0  0  0
    8.6218   -4.2138   -2.4066 H   0  0  0  0  0  0  0  0  0  0  0  0
    8.2780   -4.7362   -4.8060 H   0  0  0  0  0  0  0  0  0  0  0  0
    6.5225   -3.5232   -6.0883 H   0  0  0  0  0  0  0  0  0  0  0  0
    5.1412   -1.8063   -4.9493 H   0  0  0  0  0  0  0  0  0  0  0  0
    5.1327    2.0886   -2.2894 H   0  0  0  0  0  0  0  0  0  0  0  0
    3.4377    3.4132   -3.4839 H   0  0  0  0  0  0  0  0  0  0  0  0
    1.0420    3.0168   -3.0853 H   0  0  0  0  0  0  0  0  0  0  0  0
   -0.7413    1.8410   -1.9506 H   0  0  0  0  0  0  0  0  0  0  0  0
   -2.5510    0.7166   -0.8000 H   0  0  0  0  0  0  0  0  0  0  0  0
  1  2  4  0
  2  3  4  0
  3  4  4  0
  4  5  4  0
  5  6  4  0
  6  7  4  0
  7  8  4  0
  8  9  4  0
  9 10  4  0
  7 11  4  0
 11 12  4  0
 12 13  4  0
 13 14  4  0
 14 15  4  0
 15 16  4  0
 16 17  4  0
 17 18  4  0
 18 19  4  0
 19 20  4  0
 20 21  4  0
 21 22  4  0
 22 23  1  0
 23 24  4  0
 24 25  4  0
 25 26  4  0
 26 27  4  0
 27 28  4  0
 28 29  4  0
 29 30  4  0
 30 31  4  0
 31 32  4  0
 32 33  1  0
 33 34  4  0
 34 35  4  0
 35 36  4  0
 36 37  4  0
 37 38  4  0
 38 39  4  0
 39 40  4  0
 40 41  4  0
 41 42  4  0
 42 43  4  0
 43 44  4  0
 44 45  4  0
 45 46  4  0
 46 47  4  0
 47 48  4  0
 48 49  4  0
 49 50  4  0
 50 51  4  0
 51 52  4  0
 52 53  4  0
 53 54  4  0
 32 55  4  0
 55 56  4  0
 56 57  4  0
 57 58  4  0
 58 59  4  0
 59 60  4  0
 60 61  4  0
 61 62  4  0
 10  1  4  0
 21 12  4  0
 62 23  4  0
  9  4  4  0
 19 14  4  0
 62 27  4  0
 22  6  4  0
 60 29  4  0
 58 31  4  0
 54 33  4  0
 43 34  4  0
 54 45  4  0
 41 36  4  0
 52 47  4  0
  1 63  1  0
  2 64  1  0
  3 65  1  0
 10 66  1  0
 11 67  1  0
 15 68  1  0
 16 69  1  0
 17 70  1  0
 18 71  1  0
 24 72  1  0
 25 73  1  0
 26 74  1  0
 28 75  1  0
 30 76  1  0
 37 77  1  0
 38 78  1  0
 39 79  1  0
 40 80  1  0
 44 81  1  0
 48 82  1  0
 49 83  1  0
 50 84  1  0
 51 85  1  0
 55 86  1  0
 56 87  1  0
 57 88  1  0
 59 89  1  0
 61 90  1  0
M  END
