
     RDKit          3D

 94107  0  0  0  0  0  0  0  0999 V2000
    6.1815   -8.2116    1.6990 C   0  0  0  0  0  0  0  0  0  0  0  0
    4.8078   -8.2238    1.9108 C   0  0  0  0  0  0  0  0  0  0  0  0
    4.1270   -7.0225    2.1310 C   0  0  0  0  0  0  0  0  0  0  0  0
    4.7858   -5.8002    2.1452 C   0  0  0  0  0  0  0  0  0  0  0  0
    4.0838   -4.6736    2.3612 N   0  0  0  0  0  0  0  0  0  0  0  0
    4.7256   -3.4933    2.3745 C   0  0  0  0  0  0  0  0  0  0  0  0
    4.0069   -2.3297    2.5973 C   0  0  0  0  0  0  0  0  0  0  0  0
    4.6294   -1.0674    2.6266 C   0  0  0  0  0  0  0  0  0  0  0  0
    3.9099    0.1109    2.8582 C   0  0  0  0  0  0  0  0  0  0  0  0
    4.5567    1.3623    2.8941 C   0  0  0  0  0  0  0  0  0  0  0  0
    5.9496    1.3501    2.6718 C   0  0  0  0  0  0  0  0  0  0  0  0
    6.6489    0.2243    2.4444 N   0  0  0  0  0  0  0  0  0  0  0  0
    6.0108   -0.9564    2.4247 C   0  0  0  0  0  0  0  0  0  0  0  0
    6.7309   -2.1190    2.1989 C   0  0  0  0  0  0  0  0  0  0  0  0
    6.1103   -3.3821    2.1719 C   0  0  0  0  0  0  0  0  0  0  0  0
    6.8337   -4.5589    1.9473 C   0  0  0  0  0  0  0  0  0  0  0  0
    6.1772   -5.7941    1.9305 C   0  0  0  0  0  0  0  0  0  0  0  0
    6.8677   -6.9992    1.7085 C   0  0  0  0  0  0  0  0  0  0  0  0
    6.6405    2.5524    2.6886 C   0  0  0  0  0  0  0  0  0  0  0  0
    6.0003    3.7685    2.9217 C   0  0  0  0  0  0  0  0  0  0  0  0
    4.6302    3.7896    3.1474 C   0  0  0  0  0  0  0  0  0  0  0  0
    3.8871    2.5978    3.1371 C   0  0  0  0  0  0  0  0  0  0  0  0
    2.4337    2.6729    3.3938 C   0  0  0  0  0  0  0  0  0  0  0  0
    1.9834    2.4827    4.7136 C   0  0  0  0  0  0  0  0  0  0  0  0
    0.6293    2.5409    5.0227 C   0  0  0  0  0  0  0  0  0  0  0  0
   -0.2974    2.7963    4.0168 C   0  0  0  0  0  0  0  0  0  0  0  0
    0.1131    2.9972    2.6904 C   0  0  0  0  0  0  0  0  0  0  0  0
   -0.8385    3.2591    1.6900 C   0  0  0  0  0  0  0  0  0  0  0  0
   -0.4656    3.4633    0.3524 C   0  0  0  0  0  0  0  0  0  0  0  0
   -1.4186    3.7259   -0.6478 C   0  0  0  0  0  0  0  0  0  0  0  0
   -1.0602    3.9259   -2.0025 C   0  0  0  0  0  0  0  0  0  0  0  0
   -2.0064    4.1797   -3.0387 C   0  0  0  0  0  0  0  0  0  0  0  0
   -3.4605    4.2497   -2.7833 C   0  0  0  0  0  0  0  0  0  0  0  0
   -4.0481    5.5136   -2.6098 C   0  0  0  0  0  0  0  0  0  0  0  0
   -5.4096    5.6303   -2.3631 C   0  0  0  0  0  0  0  0  0  0  0  0
   -6.1964    4.4823   -2.2882 C   0  0  0  0  0  0  0  0  0  0  0  0
   -5.6618    3.2139   -2.4542 C   0  0  0  0  0  0  0  0  0  0  0  0
   -6.4955    2.1636   -2.3625 N   0  0  0  0  0  0  0  0  0  0  0  0
   -6.0103    0.9218   -2.5128 C   0  0  0  0  0  0  0  0  0  0  0  0
   -6.8684   -0.1614   -2.4135 C   0  0  0  0  0  0  0  0  0  0  0  0
   -6.4118   -1.4842   -2.5609 C   0  0  0  0  0  0  0  0  0  0  0  0
   -7.2754   -2.5807   -2.4614 C   0  0  0  0  0  0  0  0  0  0  0  0
   -6.7797   -3.8797   -2.6130 C   0  0  0  0  0  0  0  0  0  0  0  0
   -7.6142   -5.0080   -2.5208 C   0  0  0  0  0  0  0  0  0  0  0  0
   -7.0861   -6.2873   -2.6778 C   0  0  0  0  0  0  0  0  0  0  0  0
   -5.7273   -6.4428   -2.9260 C   0  0  0  0  0  0  0  0  0  0  0  0
   -4.9029   -5.3173   -3.0162 C   0  0  0  0  0  0  0  0  0  0  0  0
   -5.4028   -4.0310   -2.8644 C   0  0  0  0  0  0  0  0  0  0  0  0
   -4.5671   -2.9822   -2.9623 N   0  0  0  0  0  0  0  0  0  0  0  0
   -5.0549   -1.7391   -2.8154 C   0  0  0  0  0  0  0  0  0  0  0  0
   -4.1985   -0.6542   -2.9158 C   0  0  0  0  0  0  0  0  0  0  0  0
   -4.6570    0.6687   -2.7684 C   0  0  0  0  0  0  0  0  0  0  0  0
   -3.7982    1.7697   -2.8668 C   0  0  0  0  0  0  0  0  0  0  0  0
   -4.2804    3.0845   -2.7072 C   0  0  0  0  0  0  0  0  0  0  0  0
   -1.5547    4.3711   -4.3576 C   0  0  0  0  0  0  0  0  0  0  0  0
   -0.1999    4.3128   -4.6655 C   0  0  0  0  0  0  0  0  0  0  0  0
    0.7267    4.0608   -3.6587 C   0  0  0  0  0  0  0  0  0  0  0  0
    0.3147    3.8640   -2.3322 C   0  0  0  0  0  0  0  0  0  0  0  0
    1.2654    3.6033   -1.3312 C   0  0  0  0  0  0  0  0  0  0  0  0
    0.8915    3.4007    0.0062 C   0  0  0  0  0  0  0  0  0  0  0  0
    1.8447    3.1369    1.0056 C   0  0  0  0  0  0  0  0  0  0  0  0
    1.4877    2.9351    2.3600 C   0  0  0  0  0  0  0  0  0  0  0  0
    6.7169   -9.1417    1.5273 H   0  0  0  0  0  0  0  0  0  0  0  0
    4.2606   -9.1628    1.9061 H   0  0  0  0  0  0  0  0  0  0  0  0
    3.0523   -7.0394    2.2962 H   0  0  0  0  0  0  0  0  0  0  0  0
    2.9335   -2.4123    2.7554 H   0  0  0  0  0  0  0  0  0  0  0  0
    2.8344    0.0496    3.0137 H   0  0  0  0  0  0  0  0  0  0  0  0
    7.8040   -2.0342    2.0421 H   0  0  0  0  0  0  0  0  0  0  0  0
    7.9083   -4.5134    1.7860 H   0  0  0  0  0  0  0  0  0  0  0  0
    7.9425   -6.9978    1.5423 H   0  0  0  0  0  0  0  0  0  0  0  0
    7.7146    2.5409    2.5159 H   0  0  0  0  0  0  0  0  0  0  0  0
    6.5721    4.6927    2.9293 H   0  0  0  0  0  0  0  0  0  0  0  0
    4.1335    4.7409    3.3314 H   0  0  0  0  0  0  0  0  0  0  0  0
    2.6994    2.2836    5.5093 H   0  0  0  0  0  0  0  0  0  0  0  0
    0.2962    2.3868    6.0456 H   0  0  0  0  0  0  0  0  0  0  0  0
   -1.3533    2.8377    4.2775 H   0  0  0  0  0  0  0  0  0  0  0  0
   -1.8935    3.3039    1.9568 H   0  0  0  0  0  0  0  0  0  0  0  0
   -2.4680    3.7718   -0.3598 H   0  0  0  0  0  0  0  0  0  0  0  0
   -3.4361    6.4126   -2.6617 H   0  0  0  0  0  0  0  0  0  0  0  0
   -5.8611    6.6094   -2.2272 H   0  0  0  0  0  0  0  0  0  0  0  0
   -7.2622    4.5796   -2.0930 H   0  0  0  0  0  0  0  0  0  0  0  0
   -7.9195    0.0349   -2.2146 H   0  0  0  0  0  0  0  0  0  0  0  0
   -8.3335   -2.4229   -2.2658 H   0  0  0  0  0  0  0  0  0  0  0  0
   -8.6783   -4.8944   -2.3271 H   0  0  0  0  0  0  0  0  0  0  0  0
   -7.7326   -7.1582   -2.6072 H   0  0  0  0  0  0  0  0  0  0  0  0
   -5.3032   -7.4357   -3.0507 H   0  0  0  0  0  0  0  0  0  0  0  0
   -3.8408   -5.4467   -3.2111 H   0  0  0  0  0  0  0  0  0  0  0  0
   -3.1461   -0.8476   -3.1136 H   0  0  0  0  0  0  0  0  0  0  0  0
   -2.7422    1.5980   -3.0664 H   0  0  0  0  0  0  0  0  0  0  0  0
   -2.2703    4.5639   -5.1551 H   0  0  0  0  0  0  0  0  0  0  0  0
    0.1331    4.4601   -5.6895 H   0  0  0  0  0  0  0  0  0  0  0  0
    1.7829    4.0180   -3.9188 H   0  0  0  0  0  0  0  0  0  0  0  0
    2.3200    3.5531   -1.5982 H   0  0  0  0  0  0  0  0  0  0  0  0
    2.8930    3.0865    0.7157 H   0  0  0  0  0  0  0  0  0  0  0  0
  1  2  4  0
  2  3  4  0
  3  4  4  0
  4  5  4  0
  5  6  4  0
  6  7  4  0
  7  8  4  0
  8  9  4  0
  9 10  4  0
 10 11  4  0
 11 12  4  0
 12 13  4  0
 13 14  4  0
 14 15  4  0
 15 16  4  0
 16 17  4  0
 17 18  4  0
 11 19  4  0
 19 20  4  0
 20 21  4  0
 21 22  4  0
 22 23  1  0
 23 24  4  0
 24 25  4  0
 25 26  4  0
 26 27  4  0
 27 28  4  0
 28 29  4  0
 29 30  4  0
 30 31  4  0
 31 32  4  0
 32 33  1  0
 33 34  4  0
 34 35  4  0
 35 36  4  0
 36 37  4  0
 37 38  4  0
 38 39  4  0
 39 40  4  0
 40 41  4  0
 41 42  4  0
 42 43  4  0
 43 44  4  0
 44 45  4  0
 45 46  4  0
 46 47  4  0
 47 48  4  0
 48 49  4  0
 49 50  4  0
 50 51  4  0
 51 52  4  0
 52 53  4  0
 53 54  4  0
 32 55  4  0
 55 56  4  0
 56 57  4  0
 57 58  4  0
 58 59  4  0
 59 60  4  0
 60 61  4  0
 61 62  4  0
 18  1  4  0
 62 23  4  0
 17  4  4  0
 62 27  4  0
 15  6  4  0
 60 29  4  0
 13  8  4  0
 58 31  4  0
 22 10  4  0
 54 33  4  0
 54 37  4  0
 52 39  4  0
 50 41  4  0
 48 43  4  0
  1 63  1  0
  2 64  1  0
  3 65  1  0
  7 66  1  0
  9 67  1  0
 14 68  1  0
 16 69  1  0
 18 70  1  0
 19 71  1  0
 20 72  1  0
 21 73  1  0
 24 74  1  0
 25 75  1  0
 26 76  1  0
 28 77  1  0
 30 78  1  0
 34 79  1  0
 35 80  1  0
 36 81  1  0
 40 82  1  0
 42 83  1  0
 44 84  1  0
 45 85  1  0
 46 86  1  0
 47 87  1  0
 51 88  1  0
 53 89  1  0
 55 90  1  0
 56 91  1  0
 57 92  1  0
 59 93  1  0
 61 94  1  0
M  END
