
     RDKit          3D

 94107  0  0  0  0  0  0  0  0999 V2000
    3.3300    1.9278    6.7645 C   0  0  0  0  0  0  0  0  0  0  0  0
    4.2126    1.0341    7.3591 C   0  0  0  0  0  0  0  0  0  0  0  0
    4.9882    0.1879    6.5605 C   0  0  0  0  0  0  0  0  0  0  0  0
    4.9045    0.2110    5.1740 C   0  0  0  0  0  0  0  0  0  0  0  0
    5.6690   -0.6213    4.4477 N   0  0  0  0  0  0  0  0  0  0  0  0
    5.5810   -0.5999    3.1071 C   0  0  0  0  0  0  0  0  0  0  0  0
    6.3839   -1.4701    2.3957 C   0  0  0  0  0  0  0  0  0  0  0  0
    6.3662   -1.5281    0.9945 C   0  0  0  0  0  0  0  0  0  0  0  0
    7.1985   -2.4190    0.3048 C   0  0  0  0  0  0  0  0  0  0  0  0
    7.1762   -2.4703   -1.0913 C   0  0  0  0  0  0  0  0  0  0  0  0
    7.9990   -3.3477   -1.8217 C   0  0  0  0  0  0  0  0  0  0  0  0
    7.9460   -3.3658   -3.2138 C   0  0  0  0  0  0  0  0  0  0  0  0
    7.0725   -2.5119   -3.8773 C   0  0  0  0  0  0  0  0  0  0  0  0
    6.2581   -1.6435   -3.1440 C   0  0  0  0  0  0  0  0  0  0  0  0
    6.2943   -1.6049   -1.7564 C   0  0  0  0  0  0  0  0  0  0  0  0
    5.4953   -0.7497   -1.0966 N   0  0  0  0  0  0  0  0  0  0  0  0
    5.5140   -0.6924    0.2546 C   0  0  0  0  0  0  0  0  0  0  0  0
    4.6866    0.2021    0.9643 C   0  0  0  0  0  0  0  0  0  0  0  0
    3.7774    1.1003    0.2047 C   0  0  0  0  0  0  0  0  0  0  0  0
    4.3111    2.2905   -0.3260 C   0  0  0  0  0  0  0  0  0  0  0  0
    3.5085    3.1867   -1.0225 C   0  0  0  0  0  0  0  0  0  0  0  0
    2.1560    2.9099   -1.1976 C   0  0  0  0  0  0  0  0  0  0  0  0
    1.5874    1.7331   -0.6871 C   0  0  0  0  0  0  0  0  0  0  0  0
    0.2183    1.4749   -0.8717 C   0  0  0  0  0  0  0  0  0  0  0  0
   -0.3876    0.3109   -0.3734 C   0  0  0  0  0  0  0  0  0  0  0  0
   -1.7595    0.0576   -0.5527 C   0  0  0  0  0  0  0  0  0  0  0  0
   -2.3867   -1.1112   -0.0581 C   0  0  0  0  0  0  0  0  0  0  0  0
   -3.7737   -1.3973   -0.2309 C   0  0  0  0  0  0  0  0  0  0  0  0
   -4.6885   -0.4909   -0.9723 C   0  0  0  0  0  0  0  0  0  0  0  0
   -5.4450    0.4536   -0.2497 C   0  0  0  0  0  0  0  0  0  0  0  0
   -5.3425    0.5560    1.0949 N   0  0  0  0  0  0  0  0  0  0  0  0
   -6.0682    1.4633    1.7686 C   0  0  0  0  0  0  0  0  0  0  0  0
   -5.9433    1.5511    3.1489 C   0  0  0  0  0  0  0  0  0  0  0  0
   -6.6760    2.4779    3.8960 C   0  0  0  0  0  0  0  0  0  0  0  0
   -7.5559    3.3412    3.2540 C   0  0  0  0  0  0  0  0  0  0  0  0
   -7.6982    3.2732    1.8697 C   0  0  0  0  0  0  0  0  0  0  0  0
   -6.9576    2.3373    1.1250 C   0  0  0  0  0  0  0  0  0  0  0  0
   -7.0693    2.2362   -0.2643 C   0  0  0  0  0  0  0  0  0  0  0  0
   -6.3119    1.2918   -0.9690 C   0  0  0  0  0  0  0  0  0  0  0  0
   -6.4152    1.1840   -2.3639 C   0  0  0  0  0  0  0  0  0  0  0  0
   -5.6802    0.2654   -3.0883 C   0  0  0  0  0  0  0  0  0  0  0  0
   -5.8453    0.2406   -4.4217 N   0  0  0  0  0  0  0  0  0  0  0  0
   -5.1430   -0.6357   -5.1593 C   0  0  0  0  0  0  0  0  0  0  0  0
   -5.3091   -0.6639   -6.5384 C   0  0  0  0  0  0  0  0  0  0  0  0
   -4.5969   -1.5548   -7.3476 C   0  0  0  0  0  0  0  0  0  0  0  0
   -3.6950   -2.4419   -6.7718 C   0  0  0  0  0  0  0  0  0  0  0  0
   -3.5119   -2.4344   -5.3910 C   0  0  0  0  0  0  0  0  0  0  0  0
   -4.2334   -1.5361   -4.5837 C   0  0  0  0  0  0  0  0  0  0  0  0
   -4.0777   -1.4995   -3.1934 C   0  0  0  0  0  0  0  0  0  0  0  0
   -4.8032   -0.5871   -2.3979 C   0  0  0  0  0  0  0  0  0  0  0  0
   -4.3095   -2.5832    0.3072 C   0  0  0  0  0  0  0  0  0  0  0  0
   -3.5061   -3.4822    0.9986 C   0  0  0  0  0  0  0  0  0  0  0  0
   -2.1510   -3.2111    1.1619 C   0  0  0  0  0  0  0  0  0  0  0  0
   -1.5803   -2.0388    0.6432 C   0  0  0  0  0  0  0  0  0  0  0  0
   -0.2095   -1.7844    0.8207 C   0  0  0  0  0  0  0  0  0  0  0  0
    0.3962   -0.6212    0.3207 C   0  0  0  0  0  0  0  0  0  0  0  0
    1.7676   -0.3667    0.5023 C   0  0  0  0  0  0  0  0  0  0  0  0
    2.3934    0.8066    0.0165 C   0  0  0  0  0  0  0  0  0  0  0  0
    4.7223    0.2549    2.3972 C   0  0  0  0  0  0  0  0  0  0  0  0
    3.9351    1.1254    3.1819 C   0  0  0  0  0  0  0  0  0  0  0  0
    4.0113    1.1150    4.5795 C   0  0  0  0  0  0  0  0  0  0  0  0
    3.2275    1.9698    5.3759 C   0  0  0  0  0  0  0  0  0  0  0  0
    2.7226    2.5888    7.3772 H   0  0  0  0  0  0  0  0  0  0  0  0
    4.3024    0.9907    8.4414 H   0  0  0  0  0  0  0  0  0  0  0  0
    5.6773   -0.5091    7.0314 H   0  0  0  0  0  0  0  0  0  0  0  0
    7.0483   -2.1241    2.9584 H   0  0  0  0  0  0  0  0  0  0  0  0
    7.8687   -3.0749    0.8566 H   0  0  0  0  0  0  0  0  0  0  0  0
    8.6839   -4.0187   -1.3084 H   0  0  0  0  0  0  0  0  0  0  0  0
    8.5828   -4.0429   -3.7771 H   0  0  0  0  0  0  0  0  0  0  0  0
    7.0205   -2.5160   -4.9629 H   0  0  0  0  0  0  0  0  0  0  0  0
    5.5760   -0.9771   -3.6673 H   0  0  0  0  0  0  0  0  0  0  0  0
    5.3685    2.5155   -0.1993 H   0  0  0  0  0  0  0  0  0  0  0  0
    3.9374    4.0979   -1.4302 H   0  0  0  0  0  0  0  0  0  0  0  0
    1.5437    3.6242   -1.7443 H   0  0  0  0  0  0  0  0  0  0  0  0
   -0.3915    2.1957   -1.4145 H   0  0  0  0  0  0  0  0  0  0  0  0
   -2.3532    0.7969   -1.0873 H   0  0  0  0  0  0  0  0  0  0  0  0
   -5.2532    0.8791    3.6547 H   0  0  0  0  0  0  0  0  0  0  0  0
   -6.5540    2.5208    4.9752 H   0  0  0  0  0  0  0  0  0  0  0  0
   -8.1284    4.0648    3.8281 H   0  0  0  0  0  0  0  0  0  0  0  0
   -8.3872    3.9520    1.3733 H   0  0  0  0  0  0  0  0  0  0  0  0
   -7.7482    2.8969   -0.7993 H   0  0  0  0  0  0  0  0  0  0  0  0
   -7.0913    1.8390   -2.9111 H   0  0  0  0  0  0  0  0  0  0  0  0
   -6.0125    0.0278   -6.9959 H   0  0  0  0  0  0  0  0  0  0  0  0
   -4.7497   -1.5505   -8.4237 H   0  0  0  0  0  0  0  0  0  0  0  0
   -3.1362   -3.1364   -7.3936 H   0  0  0  0  0  0  0  0  0  0  0  0
   -2.8033   -3.1292   -4.9453 H   0  0  0  0  0  0  0  0  0  0  0  0
   -3.3758   -2.1893   -2.7281 H   0  0  0  0  0  0  0  0  0  0  0  0
   -5.3695   -2.8017    0.1919 H   0  0  0  0  0  0  0  0  0  0  0  0
   -3.9370   -4.3893    1.4136 H   0  0  0  0  0  0  0  0  0  0  0  0
   -1.5384   -3.9251    1.7084 H   0  0  0  0  0  0  0  0  0  0  0  0
    0.4004   -2.5059    1.3625 H   0  0  0  0  0  0  0  0  0  0  0  0
    2.3608   -1.1062    1.0372 H   0  0  0  0  0  0  0  0  0  0  0  0
    3.2471    1.8193    2.7022 H   0  0  0  0  0  0  0  0  0  0  0  0
    2.5321    2.6682    4.9152 H   0  0  0  0  0  0  0  0  0  0  0  0
  1  2  4  0
  2  3  4  0
  3  4  4  0
  4  5  4  0
  5  6  4  0
  6  7  4  0
  7  8  4  0
  8  9  4  0
  9 10  4  0
 10 11  4  0
 11 12  4  0
 12 13  4  0
 13 14  4  0
 14 15  4  0
 15 16  4  0
 16 17  4  0
 17 18  4  0
 18 19  1  0
 19 20  4  0
 20 21  4  0
 21 22  4  0
 22 23  4  0
 23 24  4  0
 24 25  4  0
 25 26  4  0
 26 27  4  0
 27 28  4  0
 28 29  1  0
 29 30  4  0
 30 31  4  0
 31 32  4  0
 32 33  4  0
 33 34  4  0
 34 35  4  0
 35 36  4  0
 36 37  4  0
 37 38  4  0
 38 39  4  0
 39 40  4  0
 40 41  4  0
 41 42  4  0
 42 43  4  0
 43 44  4  0
 44 45  4  0
 45 46  4  0
 46 47  4  0
 47 48  4  0
 48 49  4  0
 49 50  4  0
 28 51  4  0
 51 52  4  0
 52 53  4  0
 53 54  4  0
 54 55  4  0
 55 56  4  0
 56 57  4  0
 57 58  4  0
 18 59  4  0
 59 60  4  0
 60 61  4  0
 61 62  4  0
 62  1  4  0
 61  4  4  0
 59  6  4  0
 17  8  4  0
 58 19  4  0
 15 10  4  0
 58 23  4  0
 56 25  4  0
 54 27  4  0
 50 29  4  0
 39 30  4  0
 50 41  4  0
 37 32  4  0
 48 43  4  0
  1 63  1  0
  2 64  1  0
  3 65  1  0
  7 66  1  0
  9 67  1  0
 11 68  1  0
 12 69  1  0
 13 70  1  0
 14 71  1  0
 20 72  1  0
 21 73  1  0
 22 74  1  0
 24 75  1  0
 26 76  1  0
 33 77  1  0
 34 78  1  0
 35 79  1  0
 36 80  1  0
 38 81  1  0
 40 82  1  0
 44 83  1  0
 45 84  1  0
 46 85  1  0
 47 86  1  0
 49 87  1  0
 51 88  1  0
 52 89  1  0
 53 90  1  0
 55 91  1  0
 57 92  1  0
 60 93  1  0
 62 94  1  0
M  END
