
     RDKit          3D

 94107  0  0  0  0  0  0  0  0999 V2000
   14.6776   -2.7682    1.4511 C   0  0  0  0  0  0  0  0  0  0  0  0
   13.4425   -2.8911    0.8184 C   0  0  0  0  0  0  0  0  0  0  0  0
   12.5535   -1.8018    0.7785 C   0  0  0  0  0  0  0  0  0  0  0  0
   11.3054   -1.8894    0.1522 C   0  0  0  0  0  0  0  0  0  0  0  0
   10.4493   -0.7826    0.1340 C   0  0  0  0  0  0  0  0  0  0  0  0
    9.1855   -0.8276   -0.4840 C   0  0  0  0  0  0  0  0  0  0  0  0
    8.3403    0.2704   -0.4994 C   0  0  0  0  0  0  0  0  0  0  0  0
    7.1432    0.1734   -1.1016 N   0  0  0  0  0  0  0  0  0  0  0  0
    6.3234    1.2394   -1.1132 C   0  0  0  0  0  0  0  0  0  0  0  0
    5.0834    1.1385   -1.7305 C   0  0  0  0  0  0  0  0  0  0  0  0
    4.1732    2.2090   -1.7679 C   0  0  0  0  0  0  0  0  0  0  0  0
    2.8627    2.0595   -2.4225 C   0  0  0  0  0  0  0  0  0  0  0  0
    2.7091    2.5722   -3.7236 C   0  0  0  0  0  0  0  0  0  0  0  0
    1.4988    2.4585   -4.3992 C   0  0  0  0  0  0  0  0  0  0  0  0
    0.4206    1.8289   -3.7845 C   0  0  0  0  0  0  0  0  0  0  0  0
    0.5335    1.3053   -2.4878 C   0  0  0  0  0  0  0  0  0  0  0  0
   -0.5670    0.6714   -1.8840 C   0  0  0  0  0  0  0  0  0  0  0  0
   -0.4909    0.1338   -0.5890 C   0  0  0  0  0  0  0  0  0  0  0  0
   -1.5889   -0.5075    0.0131 C   0  0  0  0  0  0  0  0  0  0  0  0
   -1.5264   -1.0596    1.3158 C   0  0  0  0  0  0  0  0  0  0  0  0
   -2.6203   -1.7216    1.9476 C   0  0  0  0  0  0  0  0  0  0  0  0
   -3.9206   -1.9091    1.2844 C   0  0  0  0  0  0  0  0  0  0  0  0
   -4.1207   -2.9665    0.3903 C   0  0  0  0  0  0  0  0  0  0  0  0
   -5.3574   -3.1380   -0.2294 C   0  0  0  0  0  0  0  0  0  0  0  0
   -6.4131   -2.2526    0.0425 C   0  0  0  0  0  0  0  0  0  0  0  0
   -7.6671   -2.3932   -0.5614 C   0  0  0  0  0  0  0  0  0  0  0  0
   -8.6949   -1.4908   -0.2652 C   0  0  0  0  0  0  0  0  0  0  0  0
   -9.9711   -1.5944   -0.8506 C   0  0  0  0  0  0  0  0  0  0  0  0
  -10.9854   -0.6976   -0.5549 C   0  0  0  0  0  0  0  0  0  0  0  0
  -12.1845   -0.8411   -1.1431 N   0  0  0  0  0  0  0  0  0  0  0  0
  -13.1669    0.0312   -0.8533 C   0  0  0  0  0  0  0  0  0  0  0  0
  -14.4086   -0.1126   -1.4582 C   0  0  0  0  0  0  0  0  0  0  0  0
  -15.4638    0.7657   -1.1926 C   0  0  0  0  0  0  0  0  0  0  0  0
  -15.2814    1.8166   -0.3014 C   0  0  0  0  0  0  0  0  0  0  0  0
  -14.0457    1.9844    0.3197 C   0  0  0  0  0  0  0  0  0  0  0  0
  -12.9882    1.0975    0.0484 C   0  0  0  0  0  0  0  0  0  0  0  0
  -11.7344    1.2361    0.6535 C   0  0  0  0  0  0  0  0  0  0  0  0
  -10.7075    0.3327    0.3572 C   0  0  0  0  0  0  0  0  0  0  0  0
   -9.4316    0.4359    0.9428 C   0  0  0  0  0  0  0  0  0  0  0  0
   -8.4172   -0.4604    0.6465 C   0  0  0  0  0  0  0  0  0  0  0  0
   -7.2171   -0.3162    1.2329 N   0  0  0  0  0  0  0  0  0  0  0  0
   -6.2334   -1.1862    0.9425 C   0  0  0  0  0  0  0  0  0  0  0  0
   -4.9909   -1.0365    1.5448 C   0  0  0  0  0  0  0  0  0  0  0  0
   -2.4642   -2.2269    3.2518 C   0  0  0  0  0  0  0  0  0  0  0  0
   -1.2581   -2.0960    3.9311 C   0  0  0  0  0  0  0  0  0  0  0  0
   -0.1859   -1.4570    3.3162 C   0  0  0  0  0  0  0  0  0  0  0  0
   -0.3040   -0.9371    2.0186 C   0  0  0  0  0  0  0  0  0  0  0  0
    0.7908   -0.2948    1.4167 C   0  0  0  0  0  0  0  0  0  0  0  0
    0.7127    0.2394    0.1213 C   0  0  0  0  0  0  0  0  0  0  0  0
    1.8127    0.8767   -0.4797 C   0  0  0  0  0  0  0  0  0  0  0  0
    1.7587    1.4161   -1.7874 C   0  0  0  0  0  0  0  0  0  0  0  0
    4.5412    3.4203   -1.1726 C   0  0  0  0  0  0  0  0  0  0  0  0
    5.7820    3.5496   -0.5500 C   0  0  0  0  0  0  0  0  0  0  0  0
    6.6724    2.4641   -0.5155 C   0  0  0  0  0  0  0  0  0  0  0  0
    7.9224    2.5541    0.1068 C   0  0  0  0  0  0  0  0  0  0  0  0
    8.7801    1.4483    0.1244 C   0  0  0  0  0  0  0  0  0  0  0  0
   10.0444    1.4937    0.7422 C   0  0  0  0  0  0  0  0  0  0  0  0
   10.8890    0.3952    0.7588 C   0  0  0  0  0  0  0  0  0  0  0  0
   12.0842    0.4916    1.3643 N   0  0  0  0  0  0  0  0  0  0  0  0
   12.9021   -0.5764    1.3773 C   0  0  0  0  0  0  0  0  0  0  0  0
   14.1391   -0.4814    2.0011 C   0  0  0  0  0  0  0  0  0  0  0  0
   15.0272   -1.5606    2.0440 C   0  0  0  0  0  0  0  0  0  0  0  0
   15.3633   -3.6111    1.4809 H   0  0  0  0  0  0  0  0  0  0  0  0
   13.1756   -3.8390    0.3567 H   0  0  0  0  0  0  0  0  0  0  0  0
   11.0003   -2.8196   -0.3216 H   0  0  0  0  0  0  0  0  0  0  0  0
    8.8445   -1.7410   -0.9672 H   0  0  0  0  0  0  0  0  0  0  0  0
    4.8152    0.1902   -2.1937 H   0  0  0  0  0  0  0  0  0  0  0  0
    3.5460    3.0616   -4.2192 H   0  0  0  0  0  0  0  0  0  0  0  0
    1.3962    2.8572   -5.4049 H   0  0  0  0  0  0  0  0  0  0  0  0
   -0.5169    1.7486   -4.3311 H   0  0  0  0  0  0  0  0  0  0  0  0
   -1.5039    0.5921   -2.4337 H   0  0  0  0  0  0  0  0  0  0  0  0
   -2.5178   -0.5753   -0.5510 H   0  0  0  0  0  0  0  0  0  0  0  0
   -3.3096   -3.6593    0.1732 H   0  0  0  0  0  0  0  0  0  0  0  0
   -5.4920   -3.9651   -0.9227 H   0  0  0  0  0  0  0  0  0  0  0  0
   -7.8433   -3.2050   -1.2633 H   0  0  0  0  0  0  0  0  0  0  0  0
  -10.1851   -2.3940   -1.5567 H   0  0  0  0  0  0  0  0  0  0  0  0
  -14.5595   -0.9323   -2.1568 H   0  0  0  0  0  0  0  0  0  0  0  0
  -16.4229    0.6238   -1.6838 H   0  0  0  0  0  0  0  0  0  0  0  0
  -16.0975    2.5029   -0.0904 H   0  0  0  0  0  0  0  0  0  0  0  0
  -13.9106    2.8089    1.0159 H   0  0  0  0  0  0  0  0  0  0  0  0
  -11.5576    2.0476    1.3557 H   0  0  0  0  0  0  0  0  0  0  0  0
   -9.2168    1.2350    1.6493 H   0  0  0  0  0  0  0  0  0  0  0  0
   -4.8512   -0.2090    2.2386 H   0  0  0  0  0  0  0  0  0  0  0  0
   -3.2947   -2.7321    3.7421 H   0  0  0  0  0  0  0  0  0  0  0  0
   -1.1524   -2.4919    4.9375 H   0  0  0  0  0  0  0  0  0  0  0  0
    0.7508   -1.3658    3.8628 H   0  0  0  0  0  0  0  0  0  0  0  0
    1.7267   -0.2096    1.9671 H   0  0  0  0  0  0  0  0  0  0  0  0
    2.7369    0.9513    0.0910 H   0  0  0  0  0  0  0  0  0  0  0  0
    3.8574    4.2671   -1.1866 H   0  0  0  0  0  0  0  0  0  0  0  0
    6.0469    4.4989   -0.0901 H   0  0  0  0  0  0  0  0  0  0  0  0
    8.2279    3.4847    0.5798 H   0  0  0  0  0  0  0  0  0  0  0  0
   10.3834    2.4075    1.2255 H   0  0  0  0  0  0  0  0  0  0  0  0
   14.4189    0.4604    2.4670 H   0  0  0  0  0  0  0  0  0  0  0  0
   15.9879   -1.4519    2.5408 H   0  0  0  0  0  0  0  0  0  0  0  0
  1  2  4  0
  2  3  4  0
  3  4  4  0
  4  5  4  0
  5  6  4  0
  6  7  4  0
  7  8  4  0
  8  9  4  0
  9 10  4  0
 10 11  4  0
 11 12  1  0
 12 13  4  0
 13 14  4  0
 14 15  4  0
 15 16  4  0
 16 17  4  0
 17 18  4  0
 18 19  4  0
 19 20  4  0
 20 21  4  0
 21 22  1  0
 22 23  4  0
 23 24  4  0
 24 25  4  0
 25 26  4  0
 26 27  4  0
 27 28  4  0
 28 29  4  0
 29 30  4  0
 30 31  4  0
 31 32  4  0
 32 33  4  0
 33 34  4  0
 34 35  4  0
 35 36  4  0
 36 37  4  0
 37 38  4  0
 38 39  4  0
 39 40  4  0
 40 41  4  0
 41 42  4  0
 42 43  4  0
 21 44  4  0
 44 45  4  0
 45 46  4  0
 46 47  4  0
 47 48  4  0
 48 49  4  0
 49 50  4  0
 50 51  4  0
 11 52  4  0
 52 53  4  0
 53 54  4  0
 54 55  4  0
 55 56  4  0
 56 57  4  0
 57 58  4  0
 58 59  4  0
 59 60  4  0
 60 61  4  0
 61 62  4  0
 62  1  4  0
 60  3  4  0
 58  5  4  0
 56  7  4  0
 54  9  4  0
 51 12  4  0
 51 16  4  0
 49 18  4  0
 47 20  4  0
 43 22  4  0
 42 25  4  0
 40 27  4  0
 38 29  4  0
 36 31  4  0
  1 63  1  0
  2 64  1  0
  4 65  1  0
  6 66  1  0
 10 67  1  0
 13 68  1  0
 14 69  1  0
 15 70  1  0
 17 71  1  0
 19 72  1  0
 23 73  1  0
 24 74  1  0
 26 75  1  0
 28 76  1  0
 32 77  1  0
 33 78  1  0
 34 79  1  0
 35 80  1  0
 37 81  1  0
 39 82  1  0
 43 83  1  0
 44 84  1  0
 45 85  1  0
 46 86  1  0
 48 87  1  0
 50 88  1  0
 52 89  1  0
 53 90  1  0
 55 91  1  0
 57 92  1  0
 61 93  1  0
 62 94  1  0
M  END
