
     RDKit          3D

 94107  0  0  0  0  0  0  0  0999 V2000
  -15.4501   -0.5939   -1.4115 C   0  0  0  0  0  0  0  0  0  0  0  0
  -14.4567    0.3793   -1.4950 C   0  0  0  0  0  0  0  0  0  0  0  0
  -13.1911    0.1534   -0.9242 C   0  0  0  0  0  0  0  0  0  0  0  0
  -12.1703    1.1078   -0.9890 C   0  0  0  0  0  0  0  0  0  0  0  0
  -10.9246    0.8447   -0.4084 C   0  0  0  0  0  0  0  0  0  0  0  0
   -9.8708    1.7770   -0.4508 C   0  0  0  0  0  0  0  0  0  0  0  0
   -8.6384    1.5130    0.1251 C   0  0  0  0  0  0  0  0  0  0  0  0
   -7.6659    2.4376    0.0565 N   0  0  0  0  0  0  0  0  0  0  0  0
   -6.4721    2.1775    0.6172 C   0  0  0  0  0  0  0  0  0  0  0  0
   -5.4660    3.1300    0.5488 C   0  0  0  0  0  0  0  0  0  0  0  0
   -4.2047    2.9110    1.1140 C   0  0  0  0  0  0  0  0  0  0  0  0
   -3.9197    1.7093    1.7692 C   0  0  0  0  0  0  0  0  0  0  0  0
   -2.5969    1.4703    2.3654 C   0  0  0  0  0  0  0  0  0  0  0  0
   -2.4056    1.8191    3.7148 C   0  0  0  0  0  0  0  0  0  0  0  0
   -1.1795    1.6182    4.3391 C   0  0  0  0  0  0  0  0  0  0  0  0
   -0.1230    1.0647    3.6228 C   0  0  0  0  0  0  0  0  0  0  0  0
   -0.2752    0.7048    2.2755 C   0  0  0  0  0  0  0  0  0  0  0  0
    0.8042    0.1483    1.5695 C   0  0  0  0  0  0  0  0  0  0  0  0
    0.6900   -0.2232    0.2211 C   0  0  0  0  0  0  0  0  0  0  0  0
    1.7726   -0.7774   -0.4833 C   0  0  0  0  0  0  0  0  0  0  0  0
    1.6794   -1.1566   -1.8441 C   0  0  0  0  0  0  0  0  0  0  0  0
    2.7644   -1.7159   -2.5812 C   0  0  0  0  0  0  0  0  0  0  0  0
    4.0919   -1.9236   -1.9840 C   0  0  0  0  0  0  0  0  0  0  0  0
    4.4781   -3.1797   -1.5072 C   0  0  0  0  0  0  0  0  0  0  0  0
    5.7350   -3.3597   -0.9187 C   0  0  0  0  0  0  0  0  0  0  0  0
    6.6357   -2.3128   -0.7863 C   0  0  0  0  0  0  0  0  0  0  0  0
    7.8260   -2.5352   -0.2025 N   0  0  0  0  0  0  0  0  0  0  0  0
    8.6922   -1.5164   -0.0714 C   0  0  0  0  0  0  0  0  0  0  0  0
    9.9185   -1.7389    0.5337 C   0  0  0  0  0  0  0  0  0  0  0  0
   10.8617   -0.7072    0.6990 C   0  0  0  0  0  0  0  0  0  0  0  0
   12.1008   -0.9273    1.3104 C   0  0  0  0  0  0  0  0  0  0  0  0
   13.0091    0.1266    1.4555 C   0  0  0  0  0  0  0  0  0  0  0  0
   14.2640   -0.0539    2.0642 C   0  0  0  0  0  0  0  0  0  0  0  0
   15.1441    1.0182    2.1923 C   0  0  0  0  0  0  0  0  0  0  0  0
   14.7747    2.2701    1.7144 C   0  0  0  0  0  0  0  0  0  0  0  0
   13.5256    2.4431    1.1102 C   0  0  0  0  0  0  0  0  0  0  0  0
   12.6290    1.3920    0.9693 C   0  0  0  0  0  0  0  0  0  0  0  0
   11.4396    1.6114    0.3803 N   0  0  0  0  0  0  0  0  0  0  0  0
   10.5765    0.5910    0.2467 C   0  0  0  0  0  0  0  0  0  0  0  0
    9.3510    0.8133   -0.3595 C   0  0  0  0  0  0  0  0  0  0  0  0
    8.4082   -0.2181   -0.5238 C   0  0  0  0  0  0  0  0  0  0  0  0
    7.1687    0.0040   -1.1323 C   0  0  0  0  0  0  0  0  0  0  0  0
    6.2576   -1.0477   -1.2712 C   0  0  0  0  0  0  0  0  0  0  0  0
    4.9979   -0.8611   -1.8680 C   0  0  0  0  0  0  0  0  0  0  0  0
    2.5757   -2.0754   -3.9275 C   0  0  0  0  0  0  0  0  0  0  0  0
    1.3474   -1.8870   -4.5515 C   0  0  0  0  0  0  0  0  0  0  0  0
    0.2873   -1.3350   -3.8382 C   0  0  0  0  0  0  0  0  0  0  0  0
    0.4362   -0.9672   -2.4924 C   0  0  0  0  0  0  0  0  0  0  0  0
   -0.6452   -0.4121   -1.7868 C   0  0  0  0  0  0  0  0  0  0  0  0
   -0.5328   -0.0368   -0.4385 C   0  0  0  0  0  0  0  0  0  0  0  0
   -1.6144    0.5201    0.2672 C   0  0  0  0  0  0  0  0  0  0  0  0
   -1.5176    0.9029    1.6269 C   0  0  0  0  0  0  0  0  0  0  0  0
   -4.9284    0.7401    1.8479 C   0  0  0  0  0  0  0  0  0  0  0  0
   -6.1950    0.9667    1.2776 C   0  0  0  0  0  0  0  0  0  0  0  0
   -7.2154    0.0118    1.3419 C   0  0  0  0  0  0  0  0  0  0  0  0
   -8.4615    0.2746    0.7619 C   0  0  0  0  0  0  0  0  0  0  0  0
   -9.5153   -0.6578    0.8044 C   0  0  0  0  0  0  0  0  0  0  0  0
  -10.7478   -0.3937    0.2287 C   0  0  0  0  0  0  0  0  0  0  0  0
  -11.7200   -1.3184    0.2980 N   0  0  0  0  0  0  0  0  0  0  0  0
  -12.9147   -1.0581   -0.2627 C   0  0  0  0  0  0  0  0  0  0  0  0
  -13.9228   -2.0107   -0.1941 C   0  0  0  0  0  0  0  0  0  0  0  0
  -15.1829   -1.7920   -0.7595 C   0  0  0  0  0  0  0  0  0  0  0  0
  -16.4274   -0.4175   -1.8533 H   0  0  0  0  0  0  0  0  0  0  0  0
  -14.6727    1.3144   -2.0067 H   0  0  0  0  0  0  0  0  0  0  0  0
  -12.3455    2.0562   -1.4917 H   0  0  0  0  0  0  0  0  0  0  0  0
  -10.0099    2.7362   -0.9450 H   0  0  0  0  0  0  0  0  0  0  0  0
   -5.6670    4.0706    0.0413 H   0  0  0  0  0  0  0  0  0  0  0  0
   -3.4449    3.6862    1.0355 H   0  0  0  0  0  0  0  0  0  0  0  0
   -3.2244    2.2540    4.2853 H   0  0  0  0  0  0  0  0  0  0  0  0
   -1.0473    1.8928    5.3822 H   0  0  0  0  0  0  0  0  0  0  0  0
    0.8293    0.9154    4.1283 H   0  0  0  0  0  0  0  0  0  0  0  0
    1.7554    0.0007    2.0794 H   0  0  0  0  0  0  0  0  0  0  0  0
    2.7126   -0.9192    0.0482 H   0  0  0  0  0  0  0  0  0  0  0  0
    3.7987   -4.0268   -1.5801 H   0  0  0  0  0  0  0  0  0  0  0  0
    6.0144   -4.3432   -0.5482 H   0  0  0  0  0  0  0  0  0  0  0  0
   10.1412   -2.7440    0.8854 H   0  0  0  0  0  0  0  0  0  0  0  0
   12.3582   -1.9195    1.6739 H   0  0  0  0  0  0  0  0  0  0  0  0
   14.5600   -1.0304    2.4407 H   0  0  0  0  0  0  0  0  0  0  0  0
   16.1134    0.8765    2.6632 H   0  0  0  0  0  0  0  0  0  0  0  0
   15.4528    3.1145    1.8087 H   0  0  0  0  0  0  0  0  0  0  0  0
   13.2431    3.4253    0.7386 H   0  0  0  0  0  0  0  0  0  0  0  0
    9.1279    1.8186   -0.7107 H   0  0  0  0  0  0  0  0  0  0  0  0
    6.9113    0.9970   -1.4942 H   0  0  0  0  0  0  0  0  0  0  0  0
    4.7120    0.1228   -2.2372 H   0  0  0  0  0  0  0  0  0  0  0  0
    3.3990   -2.5024   -4.4978 H   0  0  0  0  0  0  0  0  0  0  0  0
    1.2167   -2.1673   -5.5932 H   0  0  0  0  0  0  0  0  0  0  0  0
   -0.6649   -1.1949   -4.3459 H   0  0  0  0  0  0  0  0  0  0  0  0
   -1.5964   -0.2688   -2.2974 H   0  0  0  0  0  0  0  0  0  0  0  0
   -2.5562    0.6593   -0.2612 H   0  0  0  0  0  0  0  0  0  0  0  0
   -4.7216   -0.2013    2.3547 H   0  0  0  0  0  0  0  0  0  0  0  0
   -7.0400   -0.9372    1.8439 H   0  0  0  0  0  0  0  0  0  0  0  0
   -9.3760   -1.6171    1.2984 H   0  0  0  0  0  0  0  0  0  0  0  0
  -13.7210   -2.9505    0.3145 H   0  0  0  0  0  0  0  0  0  0  0  0
  -15.9492   -2.5595   -0.6874 H   0  0  0  0  0  0  0  0  0  0  0  0
  1  2  4  0
  2  3  4  0
  3  4  4  0
  4  5  4  0
  5  6  4  0
  6  7  4  0
  7  8  4  0
  8  9  4  0
  9 10  4  0
 10 11  4  0
 11 12  4  0
 12 13  1  0
 13 14  4  0
 14 15  4  0
 15 16  4  0
 16 17  4  0
 17 18  4  0
 18 19  4  0
 19 20  4  0
 20 21  4  0
 21 22  4  0
 22 23  1  0
 23 24  4  0
 24 25  4  0
 25 26  4  0
 26 27  4  0
 27 28  4  0
 28 29  4  0
 29 30  4  0
 30 31  4  0
 31 32  4  0
 32 33  4  0
 33 34  4  0
 34 35  4  0
 35 36  4  0
 36 37  4  0
 37 38  4  0
 38 39  4  0
 39 40  4  0
 40 41  4  0
 41 42  4  0
 42 43  4  0
 43 44  4  0
 22 45  4  0
 45 46  4  0
 46 47  4  0
 47 48  4  0
 48 49  4  0
 49 50  4  0
 50 51  4  0
 51 52  4  0
 12 53  4  0
 53 54  4  0
 54 55  4  0
 55 56  4  0
 56 57  4  0
 57 58  4  0
 58 59  4  0
 59 60  4  0
 60 61  4  0
 61 62  4  0
 62  1  4  0
 60  3  4  0
 58  5  4  0
 56  7  4  0
 54  9  4  0
 52 13  4  0
 52 17  4  0
 50 19  4  0
 48 21  4  0
 44 23  4  0
 43 26  4  0
 41 28  4  0
 39 30  4  0
 37 32  4  0
  1 63  1  0
  2 64  1  0
  4 65  1  0
  6 66  1  0
 10 67  1  0
 11 68  1  0
 14 69  1  0
 15 70  1  0
 16 71  1  0
 18 72  1  0
 20 73  1  0
 24 74  1  0
 25 75  1  0
 29 76  1  0
 31 77  1  0
 33 78  1  0
 34 79  1  0
 35 80  1  0
 36 81  1  0
 40 82  1  0
 42 83  1  0
 44 84  1  0
 45 85  1  0
 46 86  1  0
 47 87  1  0
 49 88  1  0
 51 89  1  0
 53 90  1  0
 55 91  1  0
 57 92  1  0
 61 93  1  0
 62 94  1  0
M  END
