
     RDKit          3D

 96109  0  0  0  0  0  0  0  0999 V2000
   -9.7598    2.1521    3.8918 C   0  0  0  0  0  0  0  0  0  0  0  0
   -8.7892    3.1430    3.8021 C   0  0  0  0  0  0  0  0  0  0  0  0
   -7.7400    3.0081    2.8877 C   0  0  0  0  0  0  0  0  0  0  0  0
   -7.6334    1.9025    2.0544 C   0  0  0  0  0  0  0  0  0  0  0  0
   -6.6051    1.8213    1.1925 N   0  0  0  0  0  0  0  0  0  0  0  0
   -6.5030    0.7494    0.3866 C   0  0  0  0  0  0  0  0  0  0  0  0
   -5.4411    0.6613   -0.5045 C   0  0  0  0  0  0  0  0  0  0  0  0
   -5.2518   -0.4275   -1.3954 C   0  0  0  0  0  0  0  0  0  0  0  0
   -6.2023   -1.4665   -1.3519 C   0  0  0  0  0  0  0  0  0  0  0  0
   -7.2804   -1.3928   -0.4569 C   0  0  0  0  0  0  0  0  0  0  0  0
   -7.4343   -0.2971    0.4067 C   0  0  0  0  0  0  0  0  0  0  0  0
   -8.5028   -0.2070    1.3063 C   0  0  0  0  0  0  0  0  0  0  0  0
   -8.6188    0.9027    2.1497 C   0  0  0  0  0  0  0  0  0  0  0  0
   -9.6769    1.0320    3.0675 C   0  0  0  0  0  0  0  0  0  0  0  0
   -6.0687   -2.5725   -2.2002 C   0  0  0  0  0  0  0  0  0  0  0  0
   -5.0062   -2.6860   -3.1043 C   0  0  0  0  0  0  0  0  0  0  0  0
   -4.9083   -3.8169   -3.9335 C   0  0  0  0  0  0  0  0  0  0  0  0
   -3.8593   -3.9565   -4.8394 C   0  0  0  0  0  0  0  0  0  0  0  0
   -2.8937   -2.9651   -4.9279 C   0  0  0  0  0  0  0  0  0  0  0  0
   -2.9809   -1.8367   -4.1098 C   0  0  0  0  0  0  0  0  0  0  0  0
   -4.0349   -1.6631   -3.1777 C   0  0  0  0  0  0  0  0  0  0  0  0
   -4.1601   -0.5246   -2.3173 C   0  0  0  0  0  0  0  0  0  0  0  0
   -3.1487    0.5628   -2.3822 C   0  0  0  0  0  0  0  0  0  0  0  0
   -3.3930    1.6477   -3.2455 C   0  0  0  0  0  0  0  0  0  0  0  0
   -2.4810    2.6910   -3.3569 C   0  0  0  0  0  0  0  0  0  0  0  0
   -1.3072    2.6644   -2.6097 C   0  0  0  0  0  0  0  0  0  0  0  0
   -1.0281    1.5994   -1.7397 C   0  0  0  0  0  0  0  0  0  0  0  0
    0.1649    1.5875   -0.9977 C   0  0  0  0  0  0  0  0  0  0  0  0
    0.4770    0.5370   -0.1206 C   0  0  0  0  0  0  0  0  0  0  0  0
    1.6744    0.5226    0.6159 C   0  0  0  0  0  0  0  0  0  0  0  0
    2.0061   -0.5294    1.5021 C   0  0  0  0  0  0  0  0  0  0  0  0
    3.2155   -0.5713    2.2563 C   0  0  0  0  0  0  0  0  0  0  0  0
    4.2425    0.5003    2.1723 C   0  0  0  0  0  0  0  0  0  0  0  0
    4.1864    1.6110    3.0747 C   0  0  0  0  0  0  0  0  0  0  0  0
    3.1848    1.7745    4.0643 C   0  0  0  0  0  0  0  0  0  0  0  0
    3.1657    2.8746    4.9245 C   0  0  0  0  0  0  0  0  0  0  0  0
    4.1490    3.8470    4.8217 C   0  0  0  0  0  0  0  0  0  0  0  0
    5.1469    3.7175    3.8583 C   0  0  0  0  0  0  0  0  0  0  0  0
    5.1760    2.6151    2.9863 C   0  0  0  0  0  0  0  0  0  0  0  0
    6.1877    2.5117    2.0244 C   0  0  0  0  0  0  0  0  0  0  0  0
    6.2521    1.4343    1.1324 C   0  0  0  0  0  0  0  0  0  0  0  0
    7.2788    1.3716    0.1779 C   0  0  0  0  0  0  0  0  0  0  0  0
    7.3617    0.3058   -0.7319 C   0  0  0  0  0  0  0  0  0  0  0  0
    8.3751    0.2294   -1.6947 C   0  0  0  0  0  0  0  0  0  0  0  0
    8.4179   -0.8486   -2.5851 C   0  0  0  0  0  0  0  0  0  0  0  0
    9.4172   -0.9625   -3.5687 C   0  0  0  0  0  0  0  0  0  0  0  0
    9.4263   -2.0505   -4.4388 C   0  0  0  0  0  0  0  0  0  0  0  0
    8.4408   -3.0246   -4.3291 C   0  0  0  0  0  0  0  0  0  0  0  0
    7.4506   -2.9056   -3.3491 C   0  0  0  0  0  0  0  0  0  0  0  0
    7.4180   -1.8319   -2.4696 C   0  0  0  0  0  0  0  0  0  0  0  0
    6.4440   -1.7648   -1.5459 N   0  0  0  0  0  0  0  0  0  0  0  0
    6.4114   -0.7230   -0.6962 C   0  0  0  0  0  0  0  0  0  0  0  0
    5.4031   -0.6480    0.2563 C   0  0  0  0  0  0  0  0  0  0  0  0
    5.2831    0.4132    1.1916 C   0  0  0  0  0  0  0  0  0  0  0  0
    3.4612   -1.6604    3.1139 C   0  0  0  0  0  0  0  0  0  0  0  0
    2.5412   -2.6954    3.2359 C   0  0  0  0  0  0  0  0  0  0  0  0
    1.3598   -2.6591    2.5014 C   0  0  0  0  0  0  0  0  0  0  0  0
    1.0802   -1.5910    1.6357 C   0  0  0  0  0  0  0  0  0  0  0  0
   -0.1162   -1.5746    0.8996 C   0  0  0  0  0  0  0  0  0  0  0  0
   -0.4278   -0.5242    0.0227 C   0  0  0  0  0  0  0  0  0  0  0  0
   -1.6233   -0.5121   -0.7164 C   0  0  0  0  0  0  0  0  0  0  0  0
   -1.9499    0.5340   -1.6110 C   0  0  0  0  0  0  0  0  0  0  0  0
  -10.5778    2.2505    4.6007 H   0  0  0  0  0  0  0  0  0  0  0  0
   -8.8419    4.0216    4.4396 H   0  0  0  0  0  0  0  0  0  0  0  0
   -6.9832    3.7863    2.8223 H   0  0  0  0  0  0  0  0  0  0  0  0
   -4.7298    1.4861   -0.4941 H   0  0  0  0  0  0  0  0  0  0  0  0
   -8.0122   -2.1984   -0.4283 H   0  0  0  0  0  0  0  0  0  0  0  0
   -9.2447   -1.0006    1.3504 H   0  0  0  0  0  0  0  0  0  0  0  0
  -10.4395    0.2606    3.1432 H   0  0  0  0  0  0  0  0  0  0  0  0
   -6.8107   -3.3689   -2.1550 H   0  0  0  0  0  0  0  0  0  0  0  0
   -5.6548   -4.6066   -3.8780 H   0  0  0  0  0  0  0  0  0  0  0  0
   -3.7977   -4.8377   -5.4718 H   0  0  0  0  0  0  0  0  0  0  0  0
   -2.0697   -3.0637   -5.6298 H   0  0  0  0  0  0  0  0  0  0  0  0
   -2.2003   -1.0839   -4.2071 H   0  0  0  0  0  0  0  0  0  0  0  0
   -4.3071    1.6762   -3.8360 H   0  0  0  0  0  0  0  0  0  0  0  0
   -2.6847    3.5235   -4.0251 H   0  0  0  0  0  0  0  0  0  0  0  0
   -0.6037    3.4885   -2.7114 H   0  0  0  0  0  0  0  0  0  0  0  0
    0.8681    2.4119   -1.1053 H   0  0  0  0  0  0  0  0  0  0  0  0
    2.3658    1.3542    0.4910 H   0  0  0  0  0  0  0  0  0  0  0  0
    2.3924    1.0361    4.1747 H   0  0  0  0  0  0  0  0  0  0  0  0
    2.3803    2.9659    5.6701 H   0  0  0  0  0  0  0  0  0  0  0  0
    4.1407    4.7057    5.4872 H   0  0  0  0  0  0  0  0  0  0  0  0
    5.9083    4.4920    3.7922 H   0  0  0  0  0  0  0  0  0  0  0  0
    6.9438    3.2939    1.9675 H   0  0  0  0  0  0  0  0  0  0  0  0
    8.0245    2.1637    0.1370 H   0  0  0  0  0  0  0  0  0  0  0  0
    9.1298    1.0097   -1.7523 H   0  0  0  0  0  0  0  0  0  0  0  0
   10.1912   -0.2041   -3.6607 H   0  0  0  0  0  0  0  0  0  0  0  0
   10.1987   -2.1371   -5.1986 H   0  0  0  0  0  0  0  0  0  0  0  0
    8.4360   -3.8784   -5.0014 H   0  0  0  0  0  0  0  0  0  0  0  0
    6.6823   -3.6711   -3.2684 H   0  0  0  0  0  0  0  0  0  0  0  0
    4.6765   -1.4596    0.2576 H   0  0  0  0  0  0  0  0  0  0  0  0
    4.3837   -1.6993    3.6906 H   0  0  0  0  0  0  0  0  0  0  0  0
    2.7454   -3.5310    3.8999 H   0  0  0  0  0  0  0  0  0  0  0  0
    0.6537   -3.4802    2.6081 H   0  0  0  0  0  0  0  0  0  0  0  0
   -0.8202   -2.3983    1.0076 H   0  0  0  0  0  0  0  0  0  0  0  0
   -2.3164   -1.3426   -0.5899 H   0  0  0  0  0  0  0  0  0  0  0  0
  1  2  4  0
  2  3  4  0
  3  4  4  0
  4  5  4  0
  5  6  4  0
  6  7  4  0
  7  8  4  0
  8  9  4  0
  9 10  4  0
 10 11  4  0
 11 12  4  0
 12 13  4  0
 13 14  4  0
  9 15  4  0
 15 16  4  0
 16 17  4  0
 17 18  4  0
 18 19  4  0
 19 20  4  0
 20 21  4  0
 21 22  4  0
 22 23  1  0
 23 24  4  0
 24 25  4  0
 25 26  4  0
 26 27  4  0
 27 28  4  0
 28 29  4  0
 29 30  4  0
 30 31  4  0
 31 32  4  0
 32 33  1  0
 33 34  4  0
 34 35  4  0
 35 36  4  0
 36 37  4  0
 37 38  4  0
 38 39  4  0
 39 40  4  0
 40 41  4  0
 41 42  4  0
 42 43  4  0
 43 44  4  0
 44 45  4  0
 45 46  4  0
 46 47  4  0
 47 48  4  0
 48 49  4  0
 49 50  4  0
 50 51  4  0
 51 52  4  0
 52 53  4  0
 53 54  4  0
 32 55  4  0
 55 56  4  0
 56 57  4  0
 57 58  4  0
 58 59  4  0
 59 60  4  0
 60 61  4  0
 61 62  4  0
 14  1  4  0
 21 16  4  0
 62 23  4  0
 13  4  4  0
 62 27  4  0
 11  6  4  0
 60 29  4  0
 22  8  4  0
 58 31  4  0
 54 33  4  0
 39 34  4  0
 54 41  4  0
 52 43  4  0
 50 45  4  0
  1 63  1  0
  2 64  1  0
  3 65  1  0
  7 66  1  0
 10 67  1  0
 12 68  1  0
 14 69  1  0
 15 70  1  0
 17 71  1  0
 18 72  1  0
 19 73  1  0
 20 74  1  0
 24 75  1  0
 25 76  1  0
 26 77  1  0
 28 78  1  0
 30 79  1  0
 35 80  1  0
 36 81  1  0
 37 82  1  0
 38 83  1  0
 40 84  1  0
 42 85  1  0
 44 86  1  0
 46 87  1  0
 47 88  1  0
 48 89  1  0
 49 90  1  0
 53 91  1  0
 55 92  1  0
 56 93  1  0
 57 94  1  0
 59 95  1  0
 61 96  1  0
M  END
