
     RDKit          3D

 96109  0  0  0  0  0  0  0  0999 V2000
   14.7795    3.7164    0.3880 C   0  0  0  0  0  0  0  0  0  0  0  0
   14.1244    4.6166   -0.4441 C   0  0  0  0  0  0  0  0  0  0  0  0
   12.8253    4.3410   -0.8819 C   0  0  0  0  0  0  0  0  0  0  0  0
   12.1576    3.1820   -0.5086 C   0  0  0  0  0  0  0  0  0  0  0  0
   10.9087    2.9648   -0.9575 N   0  0  0  0  0  0  0  0  0  0  0  0
   10.2650    1.8415   -0.5944 C   0  0  0  0  0  0  0  0  0  0  0  0
    8.9759    1.6175   -1.0579 C   0  0  0  0  0  0  0  0  0  0  0  0
    8.2439    0.4647   -0.7208 C   0  0  0  0  0  0  0  0  0  0  0  0
    6.9409    0.2545   -1.2027 C   0  0  0  0  0  0  0  0  0  0  0  0
    6.2136   -0.9002   -0.8688 C   0  0  0  0  0  0  0  0  0  0  0  0
    4.9119   -1.1132   -1.3551 C   0  0  0  0  0  0  0  0  0  0  0  0
    4.1880   -2.2694   -1.0245 C   0  0  0  0  0  0  0  0  0  0  0  0
    2.8315   -2.4827   -1.5534 C   0  0  0  0  0  0  0  0  0  0  0  0
    2.7036   -3.0031   -2.8543 C   0  0  0  0  0  0  0  0  0  0  0  0
    1.4517   -3.2381   -3.4117 C   0  0  0  0  0  0  0  0  0  0  0  0
    0.3047   -2.9566   -2.6758 C   0  0  0  0  0  0  0  0  0  0  0  0
    0.3916   -2.4340   -1.3768 C   0  0  0  0  0  0  0  0  0  0  0  0
   -0.7781   -2.1543   -0.6505 C   0  0  0  0  0  0  0  0  0  0  0  0
   -0.7308   -1.6261    0.6489 C   0  0  0  0  0  0  0  0  0  0  0  0
   -1.9025   -1.3460    1.3732 C   0  0  0  0  0  0  0  0  0  0  0  0
   -1.8755   -0.8061    2.6813 C   0  0  0  0  0  0  0  0  0  0  0  0
   -3.0490   -0.5074    3.4334 C   0  0  0  0  0  0  0  0  0  0  0  0
   -4.4032   -0.7265    2.9002 C   0  0  0  0  0  0  0  0  0  0  0  0
   -5.0008    0.2184    2.0508 C   0  0  0  0  0  0  0  0  0  0  0  0
   -6.2897    0.0198    1.5260 C   0  0  0  0  0  0  0  0  0  0  0  0
   -6.8857    0.9614    0.6707 C   0  0  0  0  0  0  0  0  0  0  0  0
   -8.1738    0.7622    0.1454 C   0  0  0  0  0  0  0  0  0  0  0  0
   -8.7727    1.7036   -0.7111 C   0  0  0  0  0  0  0  0  0  0  0  0
  -10.0441    1.5252   -1.2394 C   0  0  0  0  0  0  0  0  0  0  0  0
  -10.5573    2.4659   -2.0518 N   0  0  0  0  0  0  0  0  0  0  0  0
  -11.7887    2.2928   -2.5636 C   0  0  0  0  0  0  0  0  0  0  0  0
  -12.3212    3.2626   -3.4030 C   0  0  0  0  0  0  0  0  0  0  0  0
  -13.5961    3.1334   -3.9625 C   0  0  0  0  0  0  0  0  0  0  0  0
  -14.3644    2.0099   -3.6810 C   0  0  0  0  0  0  0  0  0  0  0  0
  -13.8547    1.0215   -2.8419 C   0  0  0  0  0  0  0  0  0  0  0  0
  -12.5713    1.1574   -2.2821 C   0  0  0  0  0  0  0  0  0  0  0  0
  -12.0278    0.1853   -1.4357 C   0  0  0  0  0  0  0  0  0  0  0  0
  -10.7470    0.3570   -0.8985 C   0  0  0  0  0  0  0  0  0  0  0  0
  -10.1668   -0.5975   -0.0440 C   0  0  0  0  0  0  0  0  0  0  0  0
   -8.8817   -0.4058    0.4837 C   0  0  0  0  0  0  0  0  0  0  0  0
   -8.2875   -1.3493    1.3388 C   0  0  0  0  0  0  0  0  0  0  0  0
   -6.9999   -1.1508    1.8638 C   0  0  0  0  0  0  0  0  0  0  0  0
   -6.4045   -2.0925    2.7166 C   0  0  0  0  0  0  0  0  0  0  0  0
   -5.1219   -1.8818    3.2287 C   0  0  0  0  0  0  0  0  0  0  0  0
   -2.9232    0.0198    4.7315 C   0  0  0  0  0  0  0  0  0  0  0  0
   -1.6716    0.2561    5.2901 C   0  0  0  0  0  0  0  0  0  0  0  0
   -0.5233   -0.0307    4.5582 C   0  0  0  0  0  0  0  0  0  0  0  0
   -0.6081   -0.5580    3.2609 C   0  0  0  0  0  0  0  0  0  0  0  0
    0.5622   -0.8408    2.5364 C   0  0  0  0  0  0  0  0  0  0  0  0
    0.5157   -1.3703    1.2371 C   0  0  0  0  0  0  0  0  0  0  0  0
    1.6873   -1.6509    0.5119 C   0  0  0  0  0  0  0  0  0  0  0  0
    1.6594   -2.1870   -0.7979 C   0  0  0  0  0  0  0  0  0  0  0  0
    4.7883   -3.2217   -0.1920 C   0  0  0  0  0  0  0  0  0  0  0  0
    6.0798   -3.0229    0.3017 C   0  0  0  0  0  0  0  0  0  0  0  0
    6.8040   -1.8678   -0.0297 C   0  0  0  0  0  0  0  0  0  0  0  0
    8.1052   -1.6558    0.4543 C   0  0  0  0  0  0  0  0  0  0  0  0
    8.8314   -0.5011    0.1170 C   0  0  0  0  0  0  0  0  0  0  0  0
   10.1323   -0.2850    0.5933 C   0  0  0  0  0  0  0  0  0  0  0  0
   10.8470    0.8745    0.2428 C   0  0  0  0  0  0  0  0  0  0  0  0
   12.1468    1.1089    0.7055 C   0  0  0  0  0  0  0  0  0  0  0  0
   12.8260    2.2742    0.3340 C   0  0  0  0  0  0  0  0  0  0  0  0
   14.1329    2.5456    0.7779 C   0  0  0  0  0  0  0  0  0  0  0  0
   15.7894    3.9245    0.7320 H   0  0  0  0  0  0  0  0  0  0  0  0
   14.6175    5.5337   -0.7558 H   0  0  0  0  0  0  0  0  0  0  0  0
   12.3189    5.0499   -1.5329 H   0  0  0  0  0  0  0  0  0  0  0  0
    8.5320    2.3714   -1.7054 H   0  0  0  0  0  0  0  0  0  0  0  0
    6.4858    1.0019   -1.8510 H   0  0  0  0  0  0  0  0  0  0  0  0
    4.4486   -0.3692   -2.0017 H   0  0  0  0  0  0  0  0  0  0  0  0
    3.5944   -3.2310   -3.4373 H   0  0  0  0  0  0  0  0  0  0  0  0
    1.3698   -3.6422   -4.4170 H   0  0  0  0  0  0  0  0  0  0  0  0
   -0.6661   -3.1493   -3.1283 H   0  0  0  0  0  0  0  0  0  0  0  0
   -1.7478   -2.3503   -1.1059 H   0  0  0  0  0  0  0  0  0  0  0  0
   -2.8615   -1.5576    0.9027 H   0  0  0  0  0  0  0  0  0  0  0  0
   -4.4453    1.1195    1.7938 H   0  0  0  0  0  0  0  0  0  0  0  0
   -6.3378    1.8656    0.4091 H   0  0  0  0  0  0  0  0  0  0  0  0
   -8.2353    2.6111   -0.9801 H   0  0  0  0  0  0  0  0  0  0  0  0
  -11.7257    4.1444   -3.6277 H   0  0  0  0  0  0  0  0  0  0  0  0
  -13.9820    3.9119   -4.6156 H   0  0  0  0  0  0  0  0  0  0  0  0
  -15.3562    1.9033   -4.1127 H   0  0  0  0  0  0  0  0  0  0  0  0
  -14.4614    0.1452   -2.6260 H   0  0  0  0  0  0  0  0  0  0  0  0
  -12.6025   -0.7058   -1.1952 H   0  0  0  0  0  0  0  0  0  0  0  0
  -10.7235   -1.4972    0.2108 H   0  0  0  0  0  0  0  0  0  0  0  0
   -8.8354   -2.2529    1.6002 H   0  0  0  0  0  0  0  0  0  0  0  0
   -6.9339   -3.0026    2.9897 H   0  0  0  0  0  0  0  0  0  0  0  0
   -4.6804   -2.6302    3.8838 H   0  0  0  0  0  0  0  0  0  0  0  0
   -3.8145    0.2527    5.3115 H   0  0  0  0  0  0  0  0  0  0  0  0
   -1.5912    0.6658    6.2932 H   0  0  0  0  0  0  0  0  0  0  0  0
    0.4470    0.1624    5.0120 H   0  0  0  0  0  0  0  0  0  0  0  0
    1.5316   -0.6450    2.9925 H   0  0  0  0  0  0  0  0  0  0  0  0
    2.6469   -1.4418    0.9824 H   0  0  0  0  0  0  0  0  0  0  0  0
    4.2485   -4.1281    0.0760 H   0  0  0  0  0  0  0  0  0  0  0  0
    6.5169   -3.7819    0.9466 H   0  0  0  0  0  0  0  0  0  0  0  0
    8.5610   -2.4035    1.1010 H   0  0  0  0  0  0  0  0  0  0  0  0
   10.5967   -1.0253    1.2419 H   0  0  0  0  0  0  0  0  0  0  0  0
   12.6313    0.3840    1.3550 H   0  0  0  0  0  0  0  0  0  0  0  0
   14.6512    1.8456    1.4290 H   0  0  0  0  0  0  0  0  0  0  0  0
  1  2  4  0
  2  3  4  0
  3  4  4  0
  4  5  4  0
  5  6  4  0
  6  7  4  0
  7  8  4  0
  8  9  4  0
  9 10  4  0
 10 11  4  0
 11 12  4  0
 12 13  1  0
 13 14  4  0
 14 15  4  0
 15 16  4  0
 16 17  4  0
 17 18  4  0
 18 19  4  0
 19 20  4  0
 20 21  4  0
 21 22  4  0
 22 23  1  0
 23 24  4  0
 24 25  4  0
 25 26  4  0
 26 27  4  0
 27 28  4  0
 28 29  4  0
 29 30  4  0
 30 31  4  0
 31 32  4  0
 32 33  4  0
 33 34  4  0
 34 35  4  0
 35 36  4  0
 36 37  4  0
 37 38  4  0
 38 39  4  0
 39 40  4  0
 40 41  4  0
 41 42  4  0
 42 43  4  0
 43 44  4  0
 22 45  4  0
 45 46  4  0
 46 47  4  0
 47 48  4  0
 48 49  4  0
 49 50  4  0
 50 51  4  0
 51 52  4  0
 12 53  4  0
 53 54  4  0
 54 55  4  0
 55 56  4  0
 56 57  4  0
 57 58  4  0
 58 59  4  0
 59 60  4  0
 60 61  4  0
 61 62  4  0
 62  1  4  0
 61  4  4  0
 59  6  4  0
 57  8  4  0
 55 10  4  0
 52 13  4  0
 52 17  4  0
 50 19  4  0
 48 21  4  0
 44 23  4  0
 42 25  4  0
 40 27  4  0
 38 29  4  0
 36 31  4  0
  1 63  1  0
  2 64  1  0
  3 65  1  0
  7 66  1  0
  9 67  1  0
 11 68  1  0
 14 69  1  0
 15 70  1  0
 16 71  1  0
 18 72  1  0
 20 73  1  0
 24 74  1  0
 26 75  1  0
 28 76  1  0
 32 77  1  0
 33 78  1  0
 34 79  1  0
 35 80  1  0
 37 81  1  0
 39 82  1  0
 41 83  1  0
 43 84  1  0
 44 85  1  0
 45 86  1  0
 46 87  1  0
 47 88  1  0
 49 89  1  0
 51 90  1  0
 53 91  1  0
 54 92  1  0
 56 93  1  0
 58 94  1  0
 60 95  1  0
 62 96  1  0
M  END
