
     RDKit          3D

 86 99  0  0  0  0  0  0  0  0999 V2000
   -6.5380    3.7569   -6.9239 C   0  0  0  0  0  0  0  0  0  0  0  0
   -5.6429    3.7925   -5.8807 C   0  0  0  0  0  0  0  0  0  0  0  0
   -5.9242    2.8121   -4.8705 C   0  0  0  0  0  0  0  0  0  0  0  0
   -5.2564    2.5229   -3.6561 C   0  0  0  0  0  0  0  0  0  0  0  0
   -5.7100    1.5024   -2.8006 C   0  0  0  0  0  0  0  0  0  0  0  0
   -6.8452    0.7543   -3.1539 C   0  0  0  0  0  0  0  0  0  0  0  0
   -7.2895   -0.2630   -2.2929 C   0  0  0  0  0  0  0  0  0  0  0  0
   -6.6276   -0.5503   -1.0876 C   0  0  0  0  0  0  0  0  0  0  0  0
   -7.0839   -1.5711   -0.2376 C   0  0  0  0  0  0  0  0  0  0  0  0
   -6.3991   -1.8372    0.9648 C   0  0  0  0  0  0  0  0  0  0  0  0
   -6.7952   -3.0385    2.1343 S   0  0  0  0  0  0  0  0  0  0  0  0
   -5.4850   -2.6053    3.1340 C   0  0  0  0  0  0  0  0  0  0  0  0
   -4.7464   -1.5692    2.6037 C   0  0  0  0  0  0  0  0  0  0  0  0
   -3.5775   -1.0544    3.3112 C   0  0  0  0  0  0  0  0  0  0  0  0
   -3.8005   -0.1491    4.3598 C   0  0  0  0  0  0  0  0  0  0  0  0
   -2.7277    0.3863    5.0629 C   0  0  0  0  0  0  0  0  0  0  0  0
   -1.4268    0.0226    4.7222 C   0  0  0  0  0  0  0  0  0  0  0  0
   -1.1759   -0.8799    3.6757 C   0  0  0  0  0  0  0  0  0  0  0  0
    0.1443   -1.2332    3.3480 C   0  0  0  0  0  0  0  0  0  0  0  0
    0.4317   -2.1327    2.3091 C   0  0  0  0  0  0  0  0  0  0  0  0
    1.7531   -2.4867    1.9844 C   0  0  0  0  0  0  0  0  0  0  0  0
    2.0610   -3.3901    0.9373 C   0  0  0  0  0  0  0  0  0  0  0  0
    3.3831   -3.7732    0.5764 C   0  0  0  0  0  0  0  0  0  0  0  0
    4.5552   -3.2353    1.2620 C   0  0  0  0  0  0  0  0  0  0  0  0
    5.2244   -3.9901    2.2017 C   0  0  0  0  0  0  0  0  0  0  0  0
    6.5563   -3.1593    2.8647 S   0  0  0  0  0  0  0  0  0  0  0  0
    6.2639   -1.7633    1.8988 C   0  0  0  0  0  0  0  0  0  0  0  0
    7.0110   -0.5686    1.8933 C   0  0  0  0  0  0  0  0  0  0  0  0
    6.6346    0.4839    1.0428 C   0  0  0  0  0  0  0  0  0  0  0  0
    7.3583    1.6877    1.0172 C   0  0  0  0  0  0  0  0  0  0  0  0
    6.9918    2.7503    0.1747 C   0  0  0  0  0  0  0  0  0  0  0  0
    5.8733    2.6050   -0.6628 C   0  0  0  0  0  0  0  0  0  0  0  0
    5.1507    1.4009   -0.6393 C   0  0  0  0  0  0  0  0  0  0  0  0
    5.5188    0.3392    0.2032 C   0  0  0  0  0  0  0  0  0  0  0  0
    4.7890   -0.8621    0.2201 C   0  0  0  0  0  0  0  0  0  0  0  0
    5.1519   -1.9351    1.0738 C   0  0  0  0  0  0  0  0  0  0  0  0
    5.4958    3.6635   -1.5086 C   0  0  0  0  0  0  0  0  0  0  0  0
    6.2243    4.8770   -1.5332 C   0  0  0  0  0  0  0  0  0  0  0  0
    6.0235    6.0712   -2.3038 C   0  0  0  0  0  0  0  0  0  0  0  0
    6.9594    7.0428   -2.0374 C   0  0  0  0  0  0  0  0  0  0  0  0
    8.0871    6.5365   -0.8634 S   0  0  0  0  0  0  0  0  0  0  0  0
    7.3317    4.9964   -0.6935 C   0  0  0  0  0  0  0  0  0  0  0  0
    7.7257    3.9481    0.1610 C   0  0  0  0  0  0  0  0  0  0  0  0
    3.6045   -4.6766   -0.4745 C   0  0  0  0  0  0  0  0  0  0  0  0
    2.5312   -5.2121   -1.1766 C   0  0  0  0  0  0  0  0  0  0  0  0
    1.2308   -4.8476   -0.8351 C   0  0  0  0  0  0  0  0  0  0  0  0
    0.9813   -3.9447    0.2112 C   0  0  0  0  0  0  0  0  0  0  0  0
   -0.3387   -3.5911    0.5389 C   0  0  0  0  0  0  0  0  0  0  0  0
   -0.6260   -2.6925    1.5785 C   0  0  0  0  0  0  0  0  0  0  0  0
   -1.9476   -2.3417    1.9054 C   0  0  0  0  0  0  0  0  0  0  0  0
   -2.2552   -1.4352    2.9497 C   0  0  0  0  0  0  0  0  0  0  0  0
   -5.2699   -1.1089    1.3404 C   0  0  0  0  0  0  0  0  0  0  0  0
   -4.8247   -0.0815    0.4696 C   0  0  0  0  0  0  0  0  0  0  0  0
   -5.4937    0.1985   -0.7351 C   0  0  0  0  0  0  0  0  0  0  0  0
   -5.0478    1.2156   -1.5953 C   0  0  0  0  0  0  0  0  0  0  0  0
   -7.5189    1.0292   -4.3557 C   0  0  0  0  0  0  0  0  0  0  0  0
   -7.0491    2.0554   -5.1986 C   0  0  0  0  0  0  0  0  0  0  0  0
   -7.7233    2.5512   -6.7057 S   0  0  0  0  0  0  0  0  0  0  0  0
   -6.5526    4.3826   -7.8057 H   0  0  0  0  0  0  0  0  0  0  0  0
   -4.8159    4.4904   -5.8358 H   0  0  0  0  0  0  0  0  0  0  0  0
   -4.3780    3.1066   -3.3903 H   0  0  0  0  0  0  0  0  0  0  0  0
   -8.1694   -0.8434   -2.5668 H   0  0  0  0  0  0  0  0  0  0  0  0
   -7.9604   -2.1592   -0.4975 H   0  0  0  0  0  0  0  0  0  0  0  0
   -5.3158   -3.1352    4.0621 H   0  0  0  0  0  0  0  0  0  0  0  0
   -4.8133    0.1449    4.6275 H   0  0  0  0  0  0  0  0  0  0  0  0
   -2.9027    1.0876    5.8745 H   0  0  0  0  0  0  0  0  0  0  0  0
   -0.6013    0.4537    5.2857 H   0  0  0  0  0  0  0  0  0  0  0  0
    0.9681   -0.7990    3.9131 H   0  0  0  0  0  0  0  0  0  0  0  0
    2.5621   -2.0467    2.5658 H   0  0  0  0  0  0  0  0  0  0  0  0
    4.9930   -4.9927    2.5364 H   0  0  0  0  0  0  0  0  0  0  0  0
    7.8725   -0.4709    2.5491 H   0  0  0  0  0  0  0  0  0  0  0  0
    8.2246    1.8000    1.6674 H   0  0  0  0  0  0  0  0  0  0  0  0
    4.2840    1.2876   -1.2888 H   0  0  0  0  0  0  0  0  0  0  0  0
    3.9224   -0.9806   -0.4277 H   0  0  0  0  0  0  0  0  0  0  0  0
    4.6306    3.5590   -2.1594 H   0  0  0  0  0  0  0  0  0  0  0  0
    5.2235    6.2041   -3.0217 H   0  0  0  0  0  0  0  0  0  0  0  0
    7.0351    8.0278   -2.4770 H   0  0  0  0  0  0  0  0  0  0  0  0
    8.5942    4.0754    0.8020 H   0  0  0  0  0  0  0  0  0  0  0  0
    4.6176   -4.9605   -0.7523 H   0  0  0  0  0  0  0  0  0  0  0  0
    2.7056   -5.9108   -1.9906 H   0  0  0  0  0  0  0  0  0  0  0  0
    0.4046   -5.2779   -1.3983 H   0  0  0  0  0  0  0  0  0  0  0  0
   -1.1625   -4.0245   -0.0269 H   0  0  0  0  0  0  0  0  0  0  0  0
   -2.7570   -2.7892    1.3305 H   0  0  0  0  0  0  0  0  0  0  0  0
   -3.9440    0.4939    0.7486 H   0  0  0  0  0  0  0  0  0  0  0  0
   -4.1677    1.7952   -1.3209 H   0  0  0  0  0  0  0  0  0  0  0  0
   -8.3986    0.4590   -4.6425 H   0  0  0  0  0  0  0  0  0  0  0  0
  1  2  4  0
  2  3  4  0
  3  4  4  0
  4  5  4  0
  5  6  4  0
  6  7  4  0
  7  8  4  0
  8  9  4  0
  9 10  4  0
 10 11  4  0
 11 12  4  0
 12 13  4  0
 13 14  1  0
 14 15  4  0
 15 16  4  0
 16 17  4  0
 17 18  4  0
 18 19  4  0
 19 20  4  0
 20 21  4  0
 21 22  4  0
 22 23  4  0
 23 24  1  0
 24 25  4  0
 25 26  4  0
 26 27  4  0
 27 28  4  0
 28 29  4  0
 29 30  4  0
 30 31  4  0
 31 32  4  0
 32 33  4  0
 33 34  4  0
 34 35  4  0
 35 36  4  0
 32 37  4  0
 37 38  4  0
 38 39  4  0
 39 40  4  0
 40 41  4  0
 41 42  4  0
 42 43  4  0
 23 44  4  0
 44 45  4  0
 45 46  4  0
 46 47  4  0
 47 48  4  0
 48 49  4  0
 49 50  4  0
 50 51  4  0
 13 52  4  0
 52 53  4  0
 53 54  4  0
 54 55  4  0
  6 56  4  0
 56 57  4  0
 57 58  4  0
 58  1  4  0
 57  3  4  0
 55  5  4  0
 54  8  4  0
 52 10  4  0
 51 14  4  0
 51 18  4  0
 49 20  4  0
 47 22  4  0
 36 24  4  0
 42 38  4  0
 36 27  4  0
 34 29  4  0
 43 31  4  0
  1 59  1  0
  2 60  1  0
  4 61  1  0
  7 62  1  0
  9 63  1  0
 12 64  1  0
 15 65  1  0
 16 66  1  0
 17 67  1  0
 19 68  1  0
 21 69  1  0
 25 70  1  0
 28 71  1  0
 30 72  1  0
 33 73  1  0
 35 74  1  0
 37 75  1  0
 39 76  1  0
 40 77  1  0
 43 78  1  0
 44 79  1  0
 45 80  1  0
 46 81  1  0
 48 82  1  0
 50 83  1  0
 53 84  1  0
 55 85  1  0
 56 86  1  0
M  END
