
     RDKit          3D

 86 99  0  0  0  0  0  0  0  0999 V2000
    6.1050   -6.4257   -0.8359 C   0  0  0  0  0  0  0  0  0  0  0  0
    5.2917   -5.5884   -0.1087 C   0  0  0  0  0  0  0  0  0  0  0  0
    5.5864   -4.1999   -0.3229 C   0  0  0  0  0  0  0  0  0  0  0  0
    4.9930   -3.0367    0.2239 C   0  0  0  0  0  0  0  0  0  0  0  0
    5.4463   -1.7526   -0.1306 C   0  0  0  0  0  0  0  0  0  0  0  0
    4.8591   -0.5961    0.4107 C   0  0  0  0  0  0  0  0  0  0  0  0
    5.2887    0.7090    0.0695 C   0  0  0  0  0  0  0  0  0  0  0  0
    6.3484    0.8256   -0.8483 C   0  0  0  0  0  0  0  0  0  0  0  0
    6.9396   -0.3300   -1.3876 C   0  0  0  0  0  0  0  0  0  0  0  0
    6.5020   -1.6175   -1.0418 C   0  0  0  0  0  0  0  0  0  0  0  0
    7.1029   -2.7613   -1.5941 C   0  0  0  0  0  0  0  0  0  0  0  0
    6.6366   -4.0387   -1.2266 C   0  0  0  0  0  0  0  0  0  0  0  0
    7.2284   -5.5597   -1.7816 S   0  0  0  0  0  0  0  0  0  0  0  0
    6.8172    2.0899   -1.2305 C   0  0  0  0  0  0  0  0  0  0  0  0
    6.2244    3.2492   -0.6998 C   0  0  0  0  0  0  0  0  0  0  0  0
    6.6635    4.8781   -1.0576 S   0  0  0  0  0  0  0  0  0  0  0  0
    5.4681    5.5073   -0.0228 C   0  0  0  0  0  0  0  0  0  0  0  0
    4.7461    4.5104    0.5884 C   0  0  0  0  0  0  0  0  0  0  0  0
    5.1710    3.1835    0.2116 C   0  0  0  0  0  0  0  0  0  0  0  0
    4.6968    1.8944    0.6052 C   0  0  0  0  0  0  0  0  0  0  0  0
    3.5825    1.8519    1.5756 C   0  0  0  0  0  0  0  0  0  0  0  0
    3.8952    1.8741    2.9478 C   0  0  0  0  0  0  0  0  0  0  0  0
    2.8925    1.8361    3.9099 C   0  0  0  0  0  0  0  0  0  0  0  0
    1.5592    1.7736    3.5155 C   0  0  0  0  0  0  0  0  0  0  0  0
    1.2080    1.7477    2.1573 C   0  0  0  0  0  0  0  0  0  0  0  0
   -0.1436    1.6812    1.7782 C   0  0  0  0  0  0  0  0  0  0  0  0
   -0.5308    1.6500    0.4293 C   0  0  0  0  0  0  0  0  0  0  0  0
   -1.8833    1.5817    0.0505 C   0  0  0  0  0  0  0  0  0  0  0  0
   -2.2904    1.5499   -1.3048 C   0  0  0  0  0  0  0  0  0  0  0  0
   -3.6538    1.4845   -1.7166 C   0  0  0  0  0  0  0  0  0  0  0  0
   -4.7725    1.4514   -0.7509 C   0  0  0  0  0  0  0  0  0  0  0  0
   -5.3164    2.7071   -0.3395 C   0  0  0  0  0  0  0  0  0  0  0  0
   -4.9582    4.0606   -0.6907 C   0  0  0  0  0  0  0  0  0  0  0  0
   -5.7351    5.0081   -0.0684 C   0  0  0  0  0  0  0  0  0  0  0  0
   -6.9052    4.3000    0.9442 S   0  0  0  0  0  0  0  0  0  0  0  0
   -6.3803    2.7025    0.5619 C   0  0  0  0  0  0  0  0  0  0  0  0
   -6.9188    1.5049    1.0648 C   0  0  0  0  0  0  0  0  0  0  0  0
   -6.3828    0.2734    0.6643 C   0  0  0  0  0  0  0  0  0  0  0  0
   -5.3084    0.2279   -0.2428 C   0  0  0  0  0  0  0  0  0  0  0  0
   -4.8102   -1.0473   -0.6033 C   0  0  0  0  0  0  0  0  0  0  0  0
   -5.3469   -2.2421   -0.0933 C   0  0  0  0  0  0  0  0  0  0  0  0
   -4.8284   -3.4951   -0.4688 C   0  0  0  0  0  0  0  0  0  0  0  0
   -5.3708   -4.6970    0.0462 C   0  0  0  0  0  0  0  0  0  0  0  0
   -5.0064   -6.0646   -0.1934 C   0  0  0  0  0  0  0  0  0  0  0  0
   -5.7861   -6.9558    0.5058 C   0  0  0  0  0  0  0  0  0  0  0  0
   -6.9612   -6.1658    1.4555 S   0  0  0  0  0  0  0  0  0  0  0  0
   -6.4380   -4.6062    0.9397 C   0  0  0  0  0  0  0  0  0  0  0  0
   -6.9700   -3.3609    1.3276 C   0  0  0  0  0  0  0  0  0  0  0  0
   -6.4187   -2.1778    0.8069 C   0  0  0  0  0  0  0  0  0  0  0  0
   -6.9225   -0.9206    1.1733 C   0  0  0  0  0  0  0  0  0  0  0  0
   -3.9626    1.4537   -3.0897 C   0  0  0  0  0  0  0  0  0  0  0  0
   -2.9579    1.4875   -4.0499 C   0  0  0  0  0  0  0  0  0  0  0  0
   -1.6261    1.5535   -3.6526 C   0  0  0  0  0  0  0  0  0  0  0  0
   -1.2787    1.5854   -2.2937 C   0  0  0  0  0  0  0  0  0  0  0  0
    0.0720    1.6528   -1.9135 C   0  0  0  0  0  0  0  0  0  0  0  0
    0.4573    1.6873   -0.5646 C   0  0  0  0  0  0  0  0  0  0  0  0
    1.8096    1.7570   -0.1873 C   0  0  0  0  0  0  0  0  0  0  0  0
    2.2180    1.7872    1.1671 C   0  0  0  0  0  0  0  0  0  0  0  0
    6.0929   -7.5068   -0.8570 H   0  0  0  0  0  0  0  0  0  0  0  0
    4.5139   -5.9495    0.5528 H   0  0  0  0  0  0  0  0  0  0  0  0
    4.1721   -3.1488    0.9288 H   0  0  0  0  0  0  0  0  0  0  0  0
    4.0379   -0.7194    1.1162 H   0  0  0  0  0  0  0  0  0  0  0  0
    7.7600   -0.2257   -2.0968 H   0  0  0  0  0  0  0  0  0  0  0  0
    7.9228   -2.6718   -2.3019 H   0  0  0  0  0  0  0  0  0  0  0  0
    7.6366    2.1862   -1.9392 H   0  0  0  0  0  0  0  0  0  0  0  0
    5.3471    6.5759    0.0903 H   0  0  0  0  0  0  0  0  0  0  0  0
    3.9378    4.7141    1.2812 H   0  0  0  0  0  0  0  0  0  0  0  0
    4.9351    1.9213    3.2669 H   0  0  0  0  0  0  0  0  0  0  0  0
    3.1489    1.8542    4.9659 H   0  0  0  0  0  0  0  0  0  0  0  0
    0.7888    1.7436    4.2836 H   0  0  0  0  0  0  0  0  0  0  0  0
   -0.9125    1.6513    2.5490 H   0  0  0  0  0  0  0  0  0  0  0  0
   -2.6376    1.5516    0.8355 H   0  0  0  0  0  0  0  0  0  0  0  0
   -4.1561    4.3174   -1.3730 H   0  0  0  0  0  0  0  0  0  0  0  0
   -5.6678    6.0833   -0.1615 H   0  0  0  0  0  0  0  0  0  0  0  0
   -7.7497    1.5463    1.7655 H   0  0  0  0  0  0  0  0  0  0  0  0
   -3.9753   -1.1155   -1.3001 H   0  0  0  0  0  0  0  0  0  0  0  0
   -3.9953   -3.5528   -1.1659 H   0  0  0  0  0  0  0  0  0  0  0  0
   -4.2039   -6.3720   -0.8526 H   0  0  0  0  0  0  0  0  0  0  0  0
   -5.7216   -8.0353    0.5045 H   0  0  0  0  0  0  0  0  0  0  0  0
   -7.8015   -3.3262    2.0266 H   0  0  0  0  0  0  0  0  0  0  0  0
   -7.7559   -0.8715    1.8737 H   0  0  0  0  0  0  0  0  0  0  0  0
   -5.0016    1.4033   -3.4112 H   0  0  0  0  0  0  0  0  0  0  0  0
   -3.2118    1.4631   -5.1062 H   0  0  0  0  0  0  0  0  0  0  0  0
   -0.8538    1.5802   -4.4190 H   0  0  0  0  0  0  0  0  0  0  0  0
    0.8422    1.6786   -2.6832 H   0  0  0  0  0  0  0  0  0  0  0  0
    2.5631    1.7857   -0.9732 H   0  0  0  0  0  0  0  0  0  0  0  0
  1  2  4  0
  2  3  4  0
  3  4  4  0
  4  5  4  0
  5  6  4  0
  6  7  4  0
  7  8  4  0
  8  9  4  0
  9 10  4  0
 10 11  4  0
 11 12  4  0
 12 13  4  0
  8 14  4  0
 14 15  4  0
 15 16  4  0
 16 17  4  0
 17 18  4  0
 18 19  4  0
 19 20  4  0
 20 21  1  0
 21 22  4  0
 22 23  4  0
 23 24  4  0
 24 25  4  0
 25 26  4  0
 26 27  4  0
 27 28  4  0
 28 29  4  0
 29 30  4  0
 30 31  1  0
 31 32  4  0
 32 33  4  0
 33 34  4  0
 34 35  4  0
 35 36  4  0
 36 37  4  0
 37 38  4  0
 38 39  4  0
 39 40  4  0
 40 41  4  0
 41 42  4  0
 42 43  4  0
 43 44  4  0
 44 45  4  0
 45 46  4  0
 46 47  4  0
 47 48  4  0
 48 49  4  0
 49 50  4  0
 30 51  4  0
 51 52  4  0
 52 53  4  0
 53 54  4  0
 54 55  4  0
 55 56  4  0
 56 57  4  0
 57 58  4  0
 13  1  4  0
 19 15  4  0
 58 21  4  0
 12  3  4  0
 58 25  4  0
 10  5  4  0
 56 27  4  0
 20  7  4  0
 54 29  4  0
 39 31  4  0
 49 41  4  0
 36 32  4  0
 50 38  4  0
 47 43  4  0
  1 59  1  0
  2 60  1  0
  4 61  1  0
  6 62  1  0
  9 63  1  0
 11 64  1  0
 14 65  1  0
 17 66  1  0
 18 67  1  0
 22 68  1  0
 23 69  1  0
 24 70  1  0
 26 71  1  0
 28 72  1  0
 33 73  1  0
 34 74  1  0
 37 75  1  0
 40 76  1  0
 42 77  1  0
 44 78  1  0
 45 79  1  0
 48 80  1  0
 50 81  1  0
 51 82  1  0
 52 83  1  0
 53 84  1  0
 55 85  1  0
 57 86  1  0
M  END
