
     RDKit          3D

 80 91  0  0  0  0  0  0  0  0999 V2000
   -7.8704   -3.9333   -3.5981 C   0  0  0  0  0  0  0  0  0  0  0  0
   -8.1930   -3.2816   -2.4068 C   0  0  0  0  0  0  0  0  0  0  0  0
   -7.3690   -2.2645   -1.8959 C   0  0  0  0  0  0  0  0  0  0  0  0
   -7.6849   -1.6016   -0.6979 C   0  0  0  0  0  0  0  0  0  0  0  0
   -6.8733   -0.5851   -0.1770 C   0  0  0  0  0  0  0  0  0  0  0  0
   -7.2631    0.0347    1.0370 C   0  0  0  0  0  0  0  0  0  0  0  0
   -6.3766    1.0287    1.4486 C   0  0  0  0  0  0  0  0  0  0  0  0
   -6.5600    1.7591    2.5953 C   0  0  0  0  0  0  0  0  0  0  0  0
   -5.2946    2.9012    2.8112 S   0  0  0  0  0  0  0  0  0  0  0  0
   -4.4931    2.4134    1.3626 C   0  0  0  0  0  0  0  0  0  0  0  0
   -3.2459    3.0919    0.9877 C   0  0  0  0  0  0  0  0  0  0  0  0
   -3.3465    4.3039    0.2848 C   0  0  0  0  0  0  0  0  0  0  0  0
   -2.2033    4.9862   -0.1151 C   0  0  0  0  0  0  0  0  0  0  0  0
   -0.9476    4.4622    0.1800 C   0  0  0  0  0  0  0  0  0  0  0  0
   -0.8142    3.2514    0.8777 C   0  0  0  0  0  0  0  0  0  0  0  0
    0.4626    2.7387    1.1626 C   0  0  0  0  0  0  0  0  0  0  0  0
    0.6349    1.5317    1.8581 C   0  0  0  0  0  0  0  0  0  0  0  0
    1.9136    1.0208    2.1419 C   0  0  0  0  0  0  0  0  0  0  0  0
    2.1064   -0.1960    2.8407 C   0  0  0  0  0  0  0  0  0  0  0  0
    3.3852   -0.7451    3.1416 C   0  0  0  0  0  0  0  0  0  0  0  0
    4.6309   -0.0914    2.7191 C   0  0  0  0  0  0  0  0  0  0  0  0
    5.2726   -0.0816    1.4980 C   0  0  0  0  0  0  0  0  0  0  0  0
    4.8052   -0.7548    0.3647 C   0  0  0  0  0  0  0  0  0  0  0  0
    5.6364   -0.5817   -0.7704 C   0  0  0  0  0  0  0  0  0  0  0  0
    5.2671   -1.2073   -1.9681 C   0  0  0  0  0  0  0  0  0  0  0  0
    6.0353   -1.0846   -3.1378 C   0  0  0  0  0  0  0  0  0  0  0  0
    5.6520   -1.7175   -4.3321 C   0  0  0  0  0  0  0  0  0  0  0  0
    6.4219   -1.5890   -5.4890 C   0  0  0  0  0  0  0  0  0  0  0  0
    7.5848   -0.8262   -5.4672 C   0  0  0  0  0  0  0  0  0  0  0  0
    7.9786   -0.1914   -4.2882 C   0  0  0  0  0  0  0  0  0  0  0  0
    7.2145   -0.3114   -3.1154 C   0  0  0  0  0  0  0  0  0  0  0  0
    7.6022    0.3237   -1.9235 C   0  0  0  0  0  0  0  0  0  0  0  0
    6.8493    0.2139   -0.7469 C   0  0  0  0  0  0  0  0  0  0  0  0
    7.3078    0.8871    0.4135 C   0  0  0  0  0  0  0  0  0  0  0  0
    6.4724    0.7027    1.5143 C   0  0  0  0  0  0  0  0  0  0  0  0
    6.7234    1.2659    2.7396 C   0  0  0  0  0  0  0  0  0  0  0  0
    5.5037    0.8475    3.8751 S   0  0  0  0  0  0  0  0  0  0  0  0
    3.4857   -1.9596    3.8403 C   0  0  0  0  0  0  0  0  0  0  0  0
    2.3426   -2.6368    4.2491 C   0  0  0  0  0  0  0  0  0  0  0  0
    1.0868   -2.1091    3.9608 C   0  0  0  0  0  0  0  0  0  0  0  0
    0.9531   -0.8992    3.2617 C   0  0  0  0  0  0  0  0  0  0  0  0
   -0.3240   -0.3857    2.9788 C   0  0  0  0  0  0  0  0  0  0  0  0
   -0.4966    0.8198    2.2807 C   0  0  0  0  0  0  0  0  0  0  0  0
   -1.7752    1.3308    1.9963 C   0  0  0  0  0  0  0  0  0  0  0  0
   -1.9675    2.5456    1.2942 C   0  0  0  0  0  0  0  0  0  0  0  0
   -5.1898    1.4013    0.7358 C   0  0  0  0  0  0  0  0  0  0  0  0
   -4.7877    0.8017   -0.4619 C   0  0  0  0  0  0  0  0  0  0  0  0
   -5.6735   -0.2137   -0.9032 C   0  0  0  0  0  0  0  0  0  0  0  0
   -5.3752   -0.8868   -2.0950 C   0  0  0  0  0  0  0  0  0  0  0  0
   -6.2025   -1.9033   -2.6014 C   0  0  0  0  0  0  0  0  0  0  0  0
   -5.8913   -2.5686   -3.7991 C   0  0  0  0  0  0  0  0  0  0  0  0
   -6.7199   -3.5769   -4.2939 C   0  0  0  0  0  0  0  0  0  0  0  0
   -8.5177   -4.7180   -3.9809 H   0  0  0  0  0  0  0  0  0  0  0  0
   -9.0970   -3.5748   -1.8775 H   0  0  0  0  0  0  0  0  0  0  0  0
   -8.5887   -1.8899   -0.1629 H   0  0  0  0  0  0  0  0  0  0  0  0
   -8.1583   -0.2389    1.5809 H   0  0  0  0  0  0  0  0  0  0  0  0
   -7.3589    1.6964    3.3212 H   0  0  0  0  0  0  0  0  0  0  0  0
   -4.3240    4.7184    0.0465 H   0  0  0  0  0  0  0  0  0  0  0  0
   -2.2893    5.9245   -0.6563 H   0  0  0  0  0  0  0  0  0  0  0  0
   -0.0649    5.0116   -0.1420 H   0  0  0  0  0  0  0  0  0  0  0  0
    1.3431    3.2908    0.8372 H   0  0  0  0  0  0  0  0  0  0  0  0
    2.7807    1.5898    1.8097 H   0  0  0  0  0  0  0  0  0  0  0  0
    3.8989   -1.3480    0.3460 H   0  0  0  0  0  0  0  0  0  0  0  0
    4.3581   -1.8070   -1.9985 H   0  0  0  0  0  0  0  0  0  0  0  0
    4.7457   -2.3181   -4.3693 H   0  0  0  0  0  0  0  0  0  0  0  0
    6.1123   -2.0845   -6.4055 H   0  0  0  0  0  0  0  0  0  0  0  0
    8.1863   -0.7239   -6.3666 H   0  0  0  0  0  0  0  0  0  0  0  0
    8.8911    0.4008   -4.2919 H   0  0  0  0  0  0  0  0  0  0  0  0
    8.5149    0.9180   -1.9199 H   0  0  0  0  0  0  0  0  0  0  0  0
    8.2121    1.4818    0.4348 H   0  0  0  0  0  0  0  0  0  0  0  0
    7.5468    1.8982    3.0419 H   0  0  0  0  0  0  0  0  0  0  0  0
    4.4630   -2.3822    4.0652 H   0  0  0  0  0  0  0  0  0  0  0  0
    2.4287   -3.5750    4.7904 H   0  0  0  0  0  0  0  0  0  0  0  0
    0.2042   -2.6549    4.2895 H   0  0  0  0  0  0  0  0  0  0  0  0
   -1.2044   -0.9352    3.3093 H   0  0  0  0  0  0  0  0  0  0  0  0
   -2.6426    0.7657    2.3341 H   0  0  0  0  0  0  0  0  0  0  0  0
   -3.8917    1.0783   -1.0042 H   0  0  0  0  0  0  0  0  0  0  0  0
   -4.4769   -0.6174   -2.6493 H   0  0  0  0  0  0  0  0  0  0  0  0
   -4.9964   -2.3043   -4.3583 H   0  0  0  0  0  0  0  0  0  0  0  0
   -6.4657   -4.0823   -5.2218 H   0  0  0  0  0  0  0  0  0  0  0  0
  1  2  4  0
  2  3  4  0
  3  4  4  0
  4  5  4  0
  5  6  4  0
  6  7  4  0
  7  8  4  0
  8  9  4  0
  9 10  4  0
 10 11  1  0
 11 12  4  0
 12 13  4  0
 13 14  4  0
 14 15  4  0
 15 16  4  0
 16 17  4  0
 17 18  4  0
 18 19  4  0
 19 20  4  0
 20 21  1  0
 21 22  4  0
 22 23  4  0
 23 24  4  0
 24 25  4  0
 25 26  4  0
 26 27  4  0
 27 28  4  0
 28 29  4  0
 29 30  4  0
 30 31  4  0
 31 32  4  0
 32 33  4  0
 33 34  4  0
 34 35  4  0
 35 36  4  0
 36 37  4  0
 20 38  4  0
 38 39  4  0
 39 40  4  0
 40 41  4  0
 41 42  4  0
 42 43  4  0
 43 44  4  0
 44 45  4  0
 10 46  4  0
 46 47  4  0
 47 48  4  0
 48 49  4  0
 49 50  4  0
 50 51  4  0
 51 52  4  0
 52  1  4  0
 50  3  4  0
 48  5  4  0
 46  7  4  0
 45 11  4  0
 45 15  4  0
 43 17  4  0
 41 19  4  0
 37 21  4  0
 35 22  4  0
 33 24  4  0
 31 26  4  0
  1 53  1  0
  2 54  1  0
  4 55  1  0
  6 56  1  0
  8 57  1  0
 12 58  1  0
 13 59  1  0
 14 60  1  0
 16 61  1  0
 18 62  1  0
 23 63  1  0
 25 64  1  0
 27 65  1  0
 28 66  1  0
 29 67  1  0
 30 68  1  0
 32 69  1  0
 34 70  1  0
 36 71  1  0
 38 72  1  0
 39 73  1  0
 40 74  1  0
 42 75  1  0
 44 76  1  0
 47 77  1  0
 49 78  1  0
 51 79  1  0
 52 80  1  0
M  END
