
     RDKit          3D

 80 91  0  0  0  0  0  0  0  0999 V2000
   -5.8989    2.0942    2.2168 C   0  0  0  0  0  0  0  0  0  0  0  0
   -4.6704    1.6026    2.6650 C   0  0  0  0  0  0  0  0  0  0  0  0
   -4.2452    0.3174    2.3110 C   0  0  0  0  0  0  0  0  0  0  0  0
   -2.9458   -0.1981    2.7719 C   0  0  0  0  0  0  0  0  0  0  0  0
   -2.8573   -0.7036    4.0818 C   0  0  0  0  0  0  0  0  0  0  0  0
   -1.6598   -1.2119    4.5737 C   0  0  0  0  0  0  0  0  0  0  0  0
   -0.5293   -1.2230    3.7623 C   0  0  0  0  0  0  0  0  0  0  0  0
   -0.5772   -0.7257    2.4514 C   0  0  0  0  0  0  0  0  0  0  0  0
    0.5752   -0.7442    1.6476 C   0  0  0  0  0  0  0  0  0  0  0  0
    0.5650   -0.2538    0.3324 C   0  0  0  0  0  0  0  0  0  0  0  0
    1.7180   -0.2756   -0.4717 C   0  0  0  0  0  0  0  0  0  0  0  0
    1.7258    0.2126   -1.8003 C   0  0  0  0  0  0  0  0  0  0  0  0
    2.8804    0.1990   -2.6359 C   0  0  0  0  0  0  0  0  0  0  0  0
    4.1739   -0.3301   -2.1774 C   0  0  0  0  0  0  0  0  0  0  0  0
    5.0981    0.5028   -1.5278 C   0  0  0  0  0  0  0  0  0  0  0  0
    6.3313    0.0101   -1.0671 C   0  0  0  0  0  0  0  0  0  0  0  0
    7.2497    0.8456   -0.4097 C   0  0  0  0  0  0  0  0  0  0  0  0
    8.4803    0.3691    0.0598 C   0  0  0  0  0  0  0  0  0  0  0  0
    9.3504    1.2780    0.7146 C   0  0  0  0  0  0  0  0  0  0  0  0
   10.5377    0.6802    1.1333 C   0  0  0  0  0  0  0  0  0  0  0  0
   11.5309    1.3634    1.7900 C   0  0  0  0  0  0  0  0  0  0  0  0
   12.8554    0.3275    2.1613 S   0  0  0  0  0  0  0  0  0  0  0  0
   12.0896   -1.0349    1.4387 C   0  0  0  0  0  0  0  0  0  0  0  0
   10.8590   -0.6993    0.9315 C   0  0  0  0  0  0  0  0  0  0  0  0
   10.0239   -1.6134    0.2919 C   0  0  0  0  0  0  0  0  0  0  0  0
    8.8066   -1.0315   -0.1451 C   0  0  0  0  0  0  0  0  0  0  0  0
    7.8776   -1.8470   -0.8038 C   0  0  0  0  0  0  0  0  0  0  0  0
    6.6484   -1.3487   -1.2661 C   0  0  0  0  0  0  0  0  0  0  0  0
    5.7268   -2.1793   -1.9220 C   0  0  0  0  0  0  0  0  0  0  0  0
    4.5044   -1.6757   -2.3724 C   0  0  0  0  0  0  0  0  0  0  0  0
    2.7946    0.7046   -3.9455 C   0  0  0  0  0  0  0  0  0  0  0  0
    1.5988    1.2177   -4.4363 C   0  0  0  0  0  0  0  0  0  0  0  0
    0.4685    1.2333   -3.6243 C   0  0  0  0  0  0  0  0  0  0  0  0
    0.5157    0.7377   -2.3126 C   0  0  0  0  0  0  0  0  0  0  0  0
   -0.6354    0.7605   -1.5070 C   0  0  0  0  0  0  0  0  0  0  0  0
   -0.6248    0.2707   -0.1915 C   0  0  0  0  0  0  0  0  0  0  0  0
   -1.7777    0.2924    0.6125 C   0  0  0  0  0  0  0  0  0  0  0  0
   -1.7887   -0.2035    1.9385 C   0  0  0  0  0  0  0  0  0  0  0  0
   -5.0829   -0.4681    1.5031 C   0  0  0  0  0  0  0  0  0  0  0  0
   -6.3196    0.0145    1.0404 C   0  0  0  0  0  0  0  0  0  0  0  0
   -7.1480   -0.7713    0.2220 C   0  0  0  0  0  0  0  0  0  0  0  0
   -8.3805   -0.3035   -0.2514 C   0  0  0  0  0  0  0  0  0  0  0  0
   -9.1543   -1.1593   -1.0761 C   0  0  0  0  0  0  0  0  0  0  0  0
  -10.3546   -0.5776   -1.4796 C   0  0  0  0  0  0  0  0  0  0  0  0
  -11.2655   -1.2176   -2.2827 C   0  0  0  0  0  0  0  0  0  0  0  0
  -12.6339   -0.2180   -2.5877 S   0  0  0  0  0  0  0  0  0  0  0  0
  -11.9974    1.0712   -1.6400 C   0  0  0  0  0  0  0  0  0  0  0  0
  -10.7754    0.7390   -1.1103 C   0  0  0  0  0  0  0  0  0  0  0  0
  -10.0358    1.6007   -0.3022 C   0  0  0  0  0  0  0  0  0  0  0  0
   -8.8069    1.0337    0.1231 C   0  0  0  0  0  0  0  0  0  0  0  0
   -7.9666    1.8001    0.9409 C   0  0  0  0  0  0  0  0  0  0  0  0
   -6.7324    1.3124    1.4024 C   0  0  0  0  0  0  0  0  0  0  0  0
   -6.1974    3.0991    2.5078 H   0  0  0  0  0  0  0  0  0  0  0  0
   -4.0394    2.2330    3.2884 H   0  0  0  0  0  0  0  0  0  0  0  0
   -3.7363   -0.7047    4.7242 H   0  0  0  0  0  0  0  0  0  0  0  0
   -1.6080   -1.6006    5.5873 H   0  0  0  0  0  0  0  0  0  0  0  0
    0.3983   -1.6259    4.1644 H   0  0  0  0  0  0  0  0  0  0  0  0
    1.5016   -1.1492    2.0526 H   0  0  0  0  0  0  0  0  0  0  0  0
    2.6337   -0.6862   -0.0485 H   0  0  0  0  0  0  0  0  0  0  0  0
    4.8429    1.5506   -1.3743 H   0  0  0  0  0  0  0  0  0  0  0  0
    6.9914    1.8937   -0.2619 H   0  0  0  0  0  0  0  0  0  0  0  0
    9.1121    2.3226    0.8690 H   0  0  0  0  0  0  0  0  0  0  0  0
   11.5658    2.4053    2.0770 H   0  0  0  0  0  0  0  0  0  0  0  0
   12.5901   -1.9933    1.4323 H   0  0  0  0  0  0  0  0  0  0  0  0
   10.2714   -2.6563    0.1415 H   0  0  0  0  0  0  0  0  0  0  0  0
    8.1103   -2.8991   -0.9639 H   0  0  0  0  0  0  0  0  0  0  0  0
    5.9511   -3.2311   -2.0857 H   0  0  0  0  0  0  0  0  0  0  0  0
    3.8036   -2.3420   -2.8720 H   0  0  0  0  0  0  0  0  0  0  0  0
    3.6725    0.6972   -4.5892 H   0  0  0  0  0  0  0  0  0  0  0  0
    1.5474    1.6044   -5.4505 H   0  0  0  0  0  0  0  0  0  0  0  0
   -0.4583    1.6380   -4.0264 H   0  0  0  0  0  0  0  0  0  0  0  0
   -1.5617    1.1663   -1.9117 H   0  0  0  0  0  0  0  0  0  0  0  0
   -2.6912    0.7095    0.1910 H   0  0  0  0  0  0  0  0  0  0  0  0
   -4.7561   -1.4699    1.2268 H   0  0  0  0  0  0  0  0  0  0  0  0
   -6.8168   -1.7726   -0.0511 H   0  0  0  0  0  0  0  0  0  0  0  0
   -8.8401   -2.1561   -1.3580 H   0  0  0  0  0  0  0  0  0  0  0  0
  -11.2168   -2.2091   -2.7112 H   0  0  0  0  0  0  0  0  0  0  0  0
  -12.5597    1.9885   -1.5325 H   0  0  0  0  0  0  0  0  0  0  0  0
  -10.3583    2.5962   -0.0257 H   0  0  0  0  0  0  0  0  0  0  0  0
   -8.2734    2.8049    1.2286 H   0  0  0  0  0  0  0  0  0  0  0  0
  1  2  4  0
  2  3  4  0
  3  4  1  0
  4  5  4  0
  5  6  4  0
  6  7  4  0
  7  8  4  0
  8  9  4  0
  9 10  4  0
 10 11  4  0
 11 12  4  0
 12 13  4  0
 13 14  1  0
 14 15  4  0
 15 16  4  0
 16 17  4  0
 17 18  4  0
 18 19  4  0
 19 20  4  0
 20 21  4  0
 21 22  4  0
 22 23  4  0
 23 24  4  0
 24 25  4  0
 25 26  4  0
 26 27  4  0
 27 28  4  0
 28 29  4  0
 29 30  4  0
 13 31  4  0
 31 32  4  0
 32 33  4  0
 33 34  4  0
 34 35  4  0
 35 36  4  0
 36 37  4  0
 37 38  4  0
  3 39  4  0
 39 40  4  0
 40 41  4  0
 41 42  4  0
 42 43  4  0
 43 44  4  0
 44 45  4  0
 45 46  4  0
 46 47  4  0
 47 48  4  0
 48 49  4  0
 49 50  4  0
 50 51  4  0
 51 52  4  0
 52  1  4  0
 38  4  4  0
 52 40  4  0
 38  8  4  0
 50 42  4  0
 36 10  4  0
 48 44  4  0
 34 12  4  0
 30 14  4  0
 28 16  4  0
 26 18  4  0
 24 20  4  0
  1 53  1  0
  2 54  1  0
  5 55  1  0
  6 56  1  0
  7 57  1  0
  9 58  1  0
 11 59  1  0
 15 60  1  0
 17 61  1  0
 19 62  1  0
 21 63  1  0
 23 64  1  0
 25 65  1  0
 27 66  1  0
 29 67  1  0
 30 68  1  0
 31 69  1  0
 32 70  1  0
 33 71  1  0
 35 72  1  0
 37 73  1  0
 39 74  1  0
 41 75  1  0
 43 76  1  0
 45 77  1  0
 47 78  1  0
 49 79  1  0
 51 80  1  0
M  END
