
     RDKit          3D

 50 55  0  0  0  0  0  0  0  0999 V2000
    6.7138    1.6908    0.5649 C   0  0  0  0  0  0  0  0  0  0  0  0
    6.2150    0.8697    1.5745 C   0  0  0  0  0  0  0  0  0  0  0  0
    5.2527   -0.0975    1.2767 C   0  0  0  0  0  0  0  0  0  0  0  0
    4.7763   -0.2536   -0.0339 C   0  0  0  0  0  0  0  0  0  0  0  0
    3.7634   -1.2736   -0.3479 C   0  0  0  0  0  0  0  0  0  0  0  0
    4.2066   -2.5658   -0.6841 C   0  0  0  0  0  0  0  0  0  0  0  0
    3.3014   -3.5751   -0.9932 C   0  0  0  0  0  0  0  0  0  0  0  0
    1.9359   -3.3083   -0.9709 C   0  0  0  0  0  0  0  0  0  0  0  0
    1.4556   -2.0324   -0.6400 C   0  0  0  0  0  0  0  0  0  0  0  0
    0.0730   -1.7821   -0.6228 C   0  0  0  0  0  0  0  0  0  0  0  0
   -0.4440   -0.5186   -0.2967 C   0  0  0  0  0  0  0  0  0  0  0  0
   -1.8278   -0.2700   -0.2808 C   0  0  0  0  0  0  0  0  0  0  0  0
   -2.3676    0.9972    0.0445 C   0  0  0  0  0  0  0  0  0  0  0  0
   -3.7655    1.2745    0.0665 C   0  0  0  0  0  0  0  0  0  0  0  0
   -4.7767    0.2544   -0.2525 C   0  0  0  0  0  0  0  0  0  0  0  0
   -5.2087    0.0631   -1.5738 C   0  0  0  0  0  0  0  0  0  0  0  0
   -6.1675   -0.9060   -1.8767 C   0  0  0  0  0  0  0  0  0  0  0  0
   -6.7071   -1.6937   -0.8617 C   0  0  0  0  0  0  0  0  0  0  0  0
   -6.2899   -1.5138    0.4558 C   0  0  0  0  0  0  0  0  0  0  0  0
   -5.3312   -0.5447    0.7589 C   0  0  0  0  0  0  0  0  0  0  0  0
   -4.2099    2.5660    0.4031 C   0  0  0  0  0  0  0  0  0  0  0  0
   -3.3057    3.5757    0.7140 C   0  0  0  0  0  0  0  0  0  0  0  0
   -1.9399    3.3096    0.6934 C   0  0  0  0  0  0  0  0  0  0  0  0
   -1.4582    2.0340    0.3628 C   0  0  0  0  0  0  0  0  0  0  0  0
   -0.0754    1.7838    0.3470 C   0  0  0  0  0  0  0  0  0  0  0  0
    0.4422    0.5203    0.0208 C   0  0  0  0  0  0  0  0  0  0  0  0
    1.8262    0.2712    0.0045 C   0  0  0  0  0  0  0  0  0  0  0  0
    2.3656   -0.9957   -0.3230 C   0  0  0  0  0  0  0  0  0  0  0  0
    5.2898    0.5791   -1.0399 C   0  0  0  0  0  0  0  0  0  0  0  0
    6.2521    1.5462   -0.7420 C   0  0  0  0  0  0  0  0  0  0  0  0
    7.4629    2.4434    0.7967 H   0  0  0  0  0  0  0  0  0  0  0  0
    6.5743    0.9811    2.5941 H   0  0  0  0  0  0  0  0  0  0  0  0
    4.8694   -0.7319    2.0734 H   0  0  0  0  0  0  0  0  0  0  0  0
    5.2727   -2.7846   -0.7054 H   0  0  0  0  0  0  0  0  0  0  0  0
    3.6589   -4.5681   -1.2516 H   0  0  0  0  0  0  0  0  0  0  0  0
    1.2431   -4.1109   -1.2158 H   0  0  0  0  0  0  0  0  0  0  0  0
   -0.6176   -2.5874   -0.8687 H   0  0  0  0  0  0  0  0  0  0  0  0
   -2.5021   -1.0883   -0.5293 H   0  0  0  0  0  0  0  0  0  0  0  0
   -4.7924    0.6709   -2.3748 H   0  0  0  0  0  0  0  0  0  0  0  0
   -6.4914   -1.0451   -2.9048 H   0  0  0  0  0  0  0  0  0  0  0  0
   -7.4532   -2.4480   -1.0974 H   0  0  0  0  0  0  0  0  0  0  0  0
   -6.7100   -2.1272    1.2485 H   0  0  0  0  0  0  0  0  0  0  0  0
   -5.0117   -0.4145    1.7909 H   0  0  0  0  0  0  0  0  0  0  0  0
   -5.2761    2.7846    0.4214 H   0  0  0  0  0  0  0  0  0  0  0  0
   -3.6645    4.5685    0.9717 H   0  0  0  0  0  0  0  0  0  0  0  0
   -1.2478    4.1125    0.9395 H   0  0  0  0  0  0  0  0  0  0  0  0
    0.6149    2.5892    0.5936 H   0  0  0  0  0  0  0  0  0  0  0  0
    2.5008    1.0888    0.2546 H   0  0  0  0  0  0  0  0  0  0  0  0
    4.9352    0.4766   -2.0636 H   0  0  0  0  0  0  0  0  0  0  0  0
    6.6404    2.1855   -1.5306 H   0  0  0  0  0  0  0  0  0  0  0  0
  1  2  4  0
  2  3  4  0
  3  4  4  0
  4  5  1  0
  5  6  4  0
  6  7  4  0
  7  8  4  0
  8  9  4  0
  9 10  4  0
 10 11  4  0
 11 12  4  0
 12 13  4  0
 13 14  4  0
 14 15  1  0
 15 16  4  0
 16 17  4  0
 17 18  4  0
 18 19  4  0
 19 20  4  0
 14 21  4  0
 21 22  4  0
 22 23  4  0
 23 24  4  0
 24 25  4  0
 25 26  4  0
 26 27  4  0
 27 28  4  0
  4 29  4  0
 29 30  4  0
 30  1  4  0
 28  5  4  0
 28  9  4  0
 26 11  4  0
 24 13  4  0
 20 15  4  0
  1 31  1  0
  2 32  1  0
  3 33  1  0
  6 34  1  0
  7 35  1  0
  8 36  1  0
 10 37  1  0
 12 38  1  0
 16 39  1  0
 17 40  1  0
 18 41  1  0
 19 42  1  0
 20 43  1  0
 21 44  1  0
 22 45  1  0
 23 46  1  0
 25 47  1  0
 27 48  1  0
 29 49  1  0
 30 50  1  0
M  END
