
     RDKit          3D

 78 89  0  0  0  0  0  0  0  0999 V2000
    7.9697    2.5933    2.0998 C   0  0  0  0  0  0  0  0  0  0  0  0
    8.6115    2.3635    0.8845 C   0  0  0  0  0  0  0  0  0  0  0  0
    8.1139    1.4104   -0.0162 C   0  0  0  0  0  0  0  0  0  0  0  0
    6.9497    0.6759    0.3155 C   0  0  0  0  0  0  0  0  0  0  0  0
    6.3044    0.9129    1.5478 C   0  0  0  0  0  0  0  0  0  0  0  0
    6.8234    1.8729    2.4291 C   0  0  0  0  0  0  0  0  0  0  0  0
    5.1546    0.1836    1.8679 C   0  0  0  0  0  0  0  0  0  0  0  0
    4.6231   -0.7808    0.9911 C   0  0  0  0  0  0  0  0  0  0  0  0
    3.4026   -1.5021    1.4120 C   0  0  0  0  0  0  0  0  0  0  0  0
    3.5551   -2.6689    2.1835 C   0  0  0  0  0  0  0  0  0  0  0  0
    2.4475   -3.3895    2.6156 C   0  0  0  0  0  0  0  0  0  0  0  0
    1.1678   -2.9536    2.2847 C   0  0  0  0  0  0  0  0  0  0  0  0
    0.9753   -1.7937    1.5190 C   0  0  0  0  0  0  0  0  0  0  0  0
   -0.3245   -1.3682    1.1959 C   0  0  0  0  0  0  0  0  0  0  0  0
   -0.5540   -0.2128    0.4323 C   0  0  0  0  0  0  0  0  0  0  0  0
   -1.8552    0.2129    0.1114 C   0  0  0  0  0  0  0  0  0  0  0  0
   -2.1052    1.3753   -0.6564 C   0  0  0  0  0  0  0  0  0  0  0  0
   -3.4138    1.8297   -0.9940 C   0  0  0  0  0  0  0  0  0  0  0  0
   -4.6352    1.1195   -0.5570 C   0  0  0  0  0  0  0  0  0  0  0  0
   -5.2157    1.4974    0.6685 C   0  0  0  0  0  0  0  0  0  0  0  0
   -6.3694    0.8756    1.1577 C   0  0  0  0  0  0  0  0  0  0  0  0
   -6.9364    1.2579    2.3827 C   0  0  0  0  0  0  0  0  0  0  0  0
   -8.0854    0.6306    2.8601 C   0  0  0  0  0  0  0  0  0  0  0  0
   -8.6822   -0.3867    2.1183 C   0  0  0  0  0  0  0  0  0  0  0  0
   -8.1370   -0.7892    0.8904 C   0  0  0  0  0  0  0  0  0  0  0  0
   -6.9692   -0.1545    0.4025 C   0  0  0  0  0  0  0  0  0  0  0  0
   -6.4037   -0.5502   -0.8368 C   0  0  0  0  0  0  0  0  0  0  0  0
   -7.0221   -1.5878   -1.5797 C   0  0  0  0  0  0  0  0  0  0  0  0
   -6.4722   -1.9879   -2.8032 C   0  0  0  0  0  0  0  0  0  0  0  0
   -5.3244   -1.3762   -3.2939 C   0  0  0  0  0  0  0  0  0  0  0  0
   -4.7143   -0.3557   -2.5658 C   0  0  0  0  0  0  0  0  0  0  0  0
   -5.2322    0.0837   -1.3267 C   0  0  0  0  0  0  0  0  0  0  0  0
   -8.1775   -2.2038   -1.0822 C   0  0  0  0  0  0  0  0  0  0  0  0
   -8.7283   -1.8099    0.1378 C   0  0  0  0  0  0  0  0  0  0  0  0
   -3.5654    2.9987   -1.7627 C   0  0  0  0  0  0  0  0  0  0  0  0
   -2.4571    3.7144   -2.2012 C   0  0  0  0  0  0  0  0  0  0  0  0
   -1.1778    3.2742   -1.8751 C   0  0  0  0  0  0  0  0  0  0  0  0
   -0.9864    2.1152   -1.1078 C   0  0  0  0  0  0  0  0  0  0  0  0
    0.3133    1.6883   -0.7866 C   0  0  0  0  0  0  0  0  0  0  0  0
    0.5424    0.5345   -0.0209 C   0  0  0  0  0  0  0  0  0  0  0  0
    1.8435    0.1104    0.3020 C   0  0  0  0  0  0  0  0  0  0  0  0
    2.0936   -1.0506    1.0717 C   0  0  0  0  0  0  0  0  0  0  0  0
    5.2665   -1.0295   -0.2522 C   0  0  0  0  0  0  0  0  0  0  0  0
    4.7998   -1.9800   -1.1878 C   0  0  0  0  0  0  0  0  0  0  0  0
    5.4531   -2.1955   -2.4005 C   0  0  0  0  0  0  0  0  0  0  0  0
    6.5948   -1.4664   -2.7125 C   0  0  0  0  0  0  0  0  0  0  0  0
    7.0961   -0.5143   -1.8170 C   0  0  0  0  0  0  0  0  0  0  0  0
    6.4332   -0.2923   -0.5834 C   0  0  0  0  0  0  0  0  0  0  0  0
    8.2464    0.2216   -2.1288 C   0  0  0  0  0  0  0  0  0  0  0  0
    8.7495    1.1722   -1.2399 C   0  0  0  0  0  0  0  0  0  0  0  0
    8.3621    3.3341    2.7913 H   0  0  0  0  0  0  0  0  0  0  0  0
    9.5052    2.9353    0.6450 H   0  0  0  0  0  0  0  0  0  0  0  0
    6.3363    2.0668    3.3824 H   0  0  0  0  0  0  0  0  0  0  0  0
    4.6503    0.3642    2.8168 H   0  0  0  0  0  0  0  0  0  0  0  0
    4.5519   -3.0191    2.4467 H   0  0  0  0  0  0  0  0  0  0  0  0
    2.5813   -4.2894    3.2098 H   0  0  0  0  0  0  0  0  0  0  0  0
    0.3138   -3.5311    2.6328 H   0  0  0  0  0  0  0  0  0  0  0  0
   -1.1786   -1.9468    1.5457 H   0  0  0  0  0  0  0  0  0  0  0  0
   -2.6954   -0.3808    0.4696 H   0  0  0  0  0  0  0  0  0  0  0  0
   -4.7466    2.2920    1.2481 H   0  0  0  0  0  0  0  0  0  0  0  0
   -6.4847    2.0500    2.9761 H   0  0  0  0  0  0  0  0  0  0  0  0
   -8.5158    0.9348    3.8106 H   0  0  0  0  0  0  0  0  0  0  0  0
   -9.5788   -0.8646    2.5070 H   0  0  0  0  0  0  0  0  0  0  0  0
   -6.9341   -2.7824   -3.3849 H   0  0  0  0  0  0  0  0  0  0  0  0
   -4.9007   -1.6924   -4.2436 H   0  0  0  0  0  0  0  0  0  0  0  0
   -3.8163    0.0977   -2.9816 H   0  0  0  0  0  0  0  0  0  0  0  0
   -8.6621   -3.0006   -1.6422 H   0  0  0  0  0  0  0  0  0  0  0  0
   -9.6258   -2.3100    0.4946 H   0  0  0  0  0  0  0  0  0  0  0  0
   -4.5620    3.3509   -2.0239 H   0  0  0  0  0  0  0  0  0  0  0  0
   -2.5897    4.6142   -2.7961 H   0  0  0  0  0  0  0  0  0  0  0  0
   -0.3228    3.8479   -2.2273 H   0  0  0  0  0  0  0  0  0  0  0  0
    1.1666    2.2656   -1.1395 H   0  0  0  0  0  0  0  0  0  0  0  0
    2.6835    0.7023   -0.0595 H   0  0  0  0  0  0  0  0  0  0  0  0
    3.9086   -2.5694   -0.9796 H   0  0  0  0  0  0  0  0  0  0  0  0
    5.0673   -2.9324   -3.1001 H   0  0  0  0  0  0  0  0  0  0  0  0
    7.0909   -1.6479   -3.6632 H   0  0  0  0  0  0  0  0  0  0  0  0
    8.7648    0.0609   -3.0717 H   0  0  0  0  0  0  0  0  0  0  0  0
    9.6449    1.7254   -1.5139 H   0  0  0  0  0  0  0  0  0  0  0  0
  1  2  4  0
  2  3  4  0
  3  4  4  0
  4  5  4  0
  5  6  4  0
  5  7  4  0
  7  8  4  0
  8  9  1  0
  9 10  4  0
 10 11  4  0
 11 12  4  0
 12 13  4  0
 13 14  4  0
 14 15  4  0
 15 16  4  0
 16 17  4  0
 17 18  4  0
 18 19  1  0
 19 20  4  0
 20 21  4  0
 21 22  4  0
 22 23  4  0
 23 24  4  0
 24 25  4  0
 25 26  4  0
 26 27  4  0
 27 28  4  0
 28 29  4  0
 29 30  4  0
 30 31  4  0
 31 32  4  0
 28 33  4  0
 33 34  4  0
 18 35  4  0
 35 36  4  0
 36 37  4  0
 37 38  4  0
 38 39  4  0
 39 40  4  0
 40 41  4  0
 41 42  4  0
  8 43  4  0
 43 44  4  0
 44 45  4  0
 45 46  4  0
 46 47  4  0
 47 48  4  0
 47 49  4  0
 49 50  4  0
  6  1  4  0
 42  9  4  0
 48 43  4  0
 50  3  4  0
 48  4  4  0
 42 13  4  0
 40 15  4  0
 38 17  4  0
 32 19  4  0
 26 21  4  0
 32 27  4  0
 34 25  4  0
  1 51  1  0
  2 52  1  0
  6 53  1  0
  7 54  1  0
 10 55  1  0
 11 56  1  0
 12 57  1  0
 14 58  1  0
 16 59  1  0
 20 60  1  0
 22 61  1  0
 23 62  1  0
 24 63  1  0
 29 64  1  0
 30 65  1  0
 31 66  1  0
 33 67  1  0
 34 68  1  0
 35 69  1  0
 36 70  1  0
 37 71  1  0
 39 72  1  0
 41 73  1  0
 44 74  1  0
 45 75  1  0
 46 76  1  0
 49 77  1  0
 50 78  1  0
M  END
