
     RDKit          3D

 78 89  0  0  0  0  0  0  0  0999 V2000
   10.7258    0.7770    1.3390 C   0  0  0  0  0  0  0  0  0  0  0  0
   10.1056    1.7902    0.6087 C   0  0  0  0  0  0  0  0  0  0  0  0
    8.8551    1.5770    0.0102 C   0  0  0  0  0  0  0  0  0  0  0  0
    8.2240    0.3196    0.1534 C   0  0  0  0  0  0  0  0  0  0  0  0
    8.8539   -0.7075    0.8939 C   0  0  0  0  0  0  0  0  0  0  0  0
   10.1044   -0.4633    1.4809 C   0  0  0  0  0  0  0  0  0  0  0  0
    8.2147   -1.9477    1.0241 C   0  0  0  0  0  0  0  0  0  0  0  0
    6.9695   -2.1751    0.4322 C   0  0  0  0  0  0  0  0  0  0  0  0
    6.3312   -1.1686   -0.3056 C   0  0  0  0  0  0  0  0  0  0  0  0
    5.0821   -1.3833   -0.9090 C   0  0  0  0  0  0  0  0  0  0  0  0
    4.4467   -0.3731   -1.6462 C   0  0  0  0  0  0  0  0  0  0  0  0
    3.1435   -0.6169   -2.2851 C   0  0  0  0  0  0  0  0  0  0  0  0
    3.1355   -1.0376   -3.6277 C   0  0  0  0  0  0  0  0  0  0  0  0
    1.9401   -1.2852   -4.2931 C   0  0  0  0  0  0  0  0  0  0  0  0
    0.7309   -1.1167   -3.6256 C   0  0  0  0  0  0  0  0  0  0  0  0
    0.6980   -0.6983   -2.2870 C   0  0  0  0  0  0  0  0  0  0  0  0
   -0.5336   -0.5330   -1.6311 C   0  0  0  0  0  0  0  0  0  0  0  0
   -0.6069   -0.1136   -0.2938 C   0  0  0  0  0  0  0  0  0  0  0  0
   -1.8411    0.0507    0.3599 C   0  0  0  0  0  0  0  0  0  0  0  0
   -1.9360    0.4737    1.7073 C   0  0  0  0  0  0  0  0  0  0  0  0
   -3.1742    0.6475    2.3923 C   0  0  0  0  0  0  0  0  0  0  0  0
   -4.4726    0.3952    1.7475 C   0  0  0  0  0  0  0  0  0  0  0  0
   -5.0630   -0.8755    1.8090 C   0  0  0  0  0  0  0  0  0  0  0  0
   -6.2964   -1.1352    1.1925 C   0  0  0  0  0  0  0  0  0  0  0  0
   -6.9567   -0.0959    0.4994 C   0  0  0  0  0  0  0  0  0  0  0  0
   -6.3759    1.1906    0.4343 C   0  0  0  0  0  0  0  0  0  0  0  0
   -5.1409    1.4196    1.0608 C   0  0  0  0  0  0  0  0  0  0  0  0
   -7.0455    2.2099   -0.2565 C   0  0  0  0  0  0  0  0  0  0  0  0
   -8.2728    1.9657   -0.8783 C   0  0  0  0  0  0  0  0  0  0  0  0
   -8.8618    0.6953   -0.8258 C   0  0  0  0  0  0  0  0  0  0  0  0
  -10.0917    0.4331   -1.4469 C   0  0  0  0  0  0  0  0  0  0  0  0
  -10.6629   -0.8374   -1.3834 C   0  0  0  0  0  0  0  0  0  0  0  0
  -10.0130   -1.8631   -0.6979 C   0  0  0  0  0  0  0  0  0  0  0  0
   -8.7816   -1.6323   -0.0670 C   0  0  0  0  0  0  0  0  0  0  0  0
   -8.2010   -0.3444   -0.1315 C   0  0  0  0  0  0  0  0  0  0  0  0
   -8.1133   -2.6502    0.6263 C   0  0  0  0  0  0  0  0  0  0  0  0
   -6.8867   -2.4048    1.2481 C   0  0  0  0  0  0  0  0  0  0  0  0
   -3.1707    1.0711    3.7336 C   0  0  0  0  0  0  0  0  0  0  0  0
   -1.9769    1.3222    4.4010 C   0  0  0  0  0  0  0  0  0  0  0  0
   -0.7657    1.1539    3.7363 C   0  0  0  0  0  0  0  0  0  0  0  0
   -0.7285    0.7333    2.3982 C   0  0  0  0  0  0  0  0  0  0  0  0
    0.5043    0.5684    1.7431 C   0  0  0  0  0  0  0  0  0  0  0  0
    0.5798    0.1480    0.4056 C   0  0  0  0  0  0  0  0  0  0  0  0
    1.8139   -0.0169   -0.2496 C   0  0  0  0  0  0  0  0  0  0  0  0
    1.9072   -0.4411   -1.5971 C   0  0  0  0  0  0  0  0  0  0  0  0
    5.0829    0.8699   -1.7776 C   0  0  0  0  0  0  0  0  0  0  0  0
    6.3324    1.1143   -1.1872 C   0  0  0  0  0  0  0  0  0  0  0  0
    6.9610    0.0883   -0.4465 C   0  0  0  0  0  0  0  0  0  0  0  0
    6.9716    2.3544   -1.3186 C   0  0  0  0  0  0  0  0  0  0  0  0
    8.2169    2.5827   -0.7280 C   0  0  0  0  0  0  0  0  0  0  0  0
   11.6951    0.9541    1.7979 H   0  0  0  0  0  0  0  0  0  0  0  0
   10.6075    2.7501    0.5092 H   0  0  0  0  0  0  0  0  0  0  0  0
   10.6050   -1.2404    2.0542 H   0  0  0  0  0  0  0  0  0  0  0  0
    8.6825   -2.7514    1.5886 H   0  0  0  0  0  0  0  0  0  0  0  0
    6.5012   -3.1498    0.5525 H   0  0  0  0  0  0  0  0  0  0  0  0
    4.5916   -2.3505   -0.8082 H   0  0  0  0  0  0  0  0  0  0  0  0
    4.0757   -1.1741   -4.1597 H   0  0  0  0  0  0  0  0  0  0  0  0
    1.9511   -1.6087   -5.3303 H   0  0  0  0  0  0  0  0  0  0  0  0
   -0.1941   -1.3152   -4.1635 H   0  0  0  0  0  0  0  0  0  0  0  0
   -1.4574   -0.7339   -2.1723 H   0  0  0  0  0  0  0  0  0  0  0  0
   -2.7524   -0.1577   -0.1992 H   0  0  0  0  0  0  0  0  0  0  0  0
   -4.5458   -1.6720    2.3422 H   0  0  0  0  0  0  0  0  0  0  0  0
   -4.6838    2.4070    1.0121 H   0  0  0  0  0  0  0  0  0  0  0  0
   -6.6159    3.2076   -0.3177 H   0  0  0  0  0  0  0  0  0  0  0  0
   -8.7655    2.7795   -1.4059 H   0  0  0  0  0  0  0  0  0  0  0  0
  -10.6155    1.2192   -1.9862 H   0  0  0  0  0  0  0  0  0  0  0  0
  -11.6167   -1.0284   -1.8685 H   0  0  0  0  0  0  0  0  0  0  0  0
  -10.4764   -2.8465   -0.6593 H   0  0  0  0  0  0  0  0  0  0  0  0
   -8.5419   -3.6478    0.6890 H   0  0  0  0  0  0  0  0  0  0  0  0
   -6.3953   -3.2183    1.7776 H   0  0  0  0  0  0  0  0  0  0  0  0
   -4.1124    1.2054    4.2633 H   0  0  0  0  0  0  0  0  0  0  0  0
   -1.9905    1.6479    5.4377 H   0  0  0  0  0  0  0  0  0  0  0  0
    0.1578    1.3551    4.2757 H   0  0  0  0  0  0  0  0  0  0  0  0
    1.4268    0.7711    2.2853 H   0  0  0  0  0  0  0  0  0  0  0  0
    2.7259    0.1932    0.3076 H   0  0  0  0  0  0  0  0  0  0  0  0
    4.5922    1.6557   -2.3503 H   0  0  0  0  0  0  0  0  0  0  0  0
    6.5046    3.1573   -1.8851 H   0  0  0  0  0  0  0  0  0  0  0  0
    8.6850    3.5567   -0.8517 H   0  0  0  0  0  0  0  0  0  0  0  0
  1  2  4  0
  2  3  4  0
  3  4  4  0
  4  5  4  0
  5  6  4  0
  5  7  4  0
  7  8  4  0
  8  9  4  0
  9 10  4  0
 10 11  4  0
 11 12  1  0
 12 13  4  0
 13 14  4  0
 14 15  4  0
 15 16  4  0
 16 17  4  0
 17 18  4  0
 18 19  4  0
 19 20  4  0
 20 21  4  0
 21 22  1  0
 22 23  4  0
 23 24  4  0
 24 25  4  0
 25 26  4  0
 26 27  4  0
 26 28  4  0
 28 29  4  0
 29 30  4  0
 30 31  4  0
 31 32  4  0
 32 33  4  0
 33 34  4  0
 34 35  4  0
 34 36  4  0
 36 37  4  0
 21 38  4  0
 38 39  4  0
 39 40  4  0
 40 41  4  0
 41 42  4  0
 42 43  4  0
 43 44  4  0
 44 45  4  0
 11 46  4  0
 46 47  4  0
 47 48  4  0
 47 49  4  0
 49 50  4  0
  6  1  4  0
 48  9  4  0
 50  3  4  0
 48  4  4  0
 45 12  4  0
 45 16  4  0
 43 18  4  0
 41 20  4  0
 27 22  4  0
 35 30  4  0
 37 24  4  0
 35 25  4  0
  1 51  1  0
  2 52  1  0
  6 53  1  0
  7 54  1  0
  8 55  1  0
 10 56  1  0
 13 57  1  0
 14 58  1  0
 15 59  1  0
 17 60  1  0
 19 61  1  0
 23 62  1  0
 27 63  1  0
 28 64  1  0
 29 65  1  0
 31 66  1  0
 32 67  1  0
 33 68  1  0
 36 69  1  0
 37 70  1  0
 38 71  1  0
 39 72  1  0
 40 73  1  0
 42 74  1  0
 44 75  1  0
 46 76  1  0
 49 77  1  0
 50 78  1  0
M  END
