
     RDKit          3D

110125  0  0  0  0  0  0  0  0999 V2000
  -14.3861    1.5680    2.1314 C   0  0  0  0  0  0  0  0  0  0  0  0
  -13.7302    1.3139    3.3319 C   0  0  0  0  0  0  0  0  0  0  0  0
  -12.4252    0.8191    3.3217 C   0  0  0  0  0  0  0  0  0  0  0  0
  -11.7596    0.5721    2.1096 C   0  0  0  0  0  0  0  0  0  0  0  0
  -10.4463    0.0742    2.0823 C   0  0  0  0  0  0  0  0  0  0  0  0
   -9.7810   -0.1727    0.8695 C   0  0  0  0  0  0  0  0  0  0  0  0
   -8.4674   -0.6707    0.8426 C   0  0  0  0  0  0  0  0  0  0  0  0
   -7.8015   -0.9180   -0.3695 C   0  0  0  0  0  0  0  0  0  0  0  0
   -6.4880   -1.4159   -0.3964 C   0  0  0  0  0  0  0  0  0  0  0  0
   -5.8211   -1.6614   -1.6086 C   0  0  0  0  0  0  0  0  0  0  0  0
   -4.5060   -2.1574   -1.6368 C   0  0  0  0  0  0  0  0  0  0  0  0
   -3.8128   -2.4034   -2.8461 C   0  0  0  0  0  0  0  0  0  0  0  0
   -4.4956   -2.1394   -4.0574 C   0  0  0  0  0  0  0  0  0  0  0  0
   -5.8115   -1.6471   -4.0291 C   0  0  0  0  0  0  0  0  0  0  0  0
   -6.4824   -1.4033   -2.8209 C   0  0  0  0  0  0  0  0  0  0  0  0
   -7.7971   -0.9068   -2.7958 C   0  0  0  0  0  0  0  0  0  0  0  0
   -8.4648   -0.6606   -1.5843 C   0  0  0  0  0  0  0  0  0  0  0  0
   -9.7786   -0.1626   -1.5578 C   0  0  0  0  0  0  0  0  0  0  0  0
  -10.4450    0.0845   -0.3457 C   0  0  0  0  0  0  0  0  0  0  0  0
  -11.7588    0.5827   -0.3197 C   0  0  0  0  0  0  0  0  0  0  0  0
  -12.4248    0.8298    0.8921 C   0  0  0  0  0  0  0  0  0  0  0  0
  -13.7382    1.3278    0.9189 C   0  0  0  0  0  0  0  0  0  0  0  0
   -3.8559   -2.3675   -5.2850 C   0  0  0  0  0  0  0  0  0  0  0  0
   -2.5520   -2.8510   -5.3344 C   0  0  0  0  0  0  0  0  0  0  0  0
   -1.8678   -3.1114   -4.1525 C   0  0  0  0  0  0  0  0  0  0  0  0
   -2.4743   -2.8931   -2.9015 C   0  0  0  0  0  0  0  0  0  0  0  0
   -1.6834   -3.1810   -1.6850 C   0  0  0  0  0  0  0  0  0  0  0  0
   -1.6129   -4.5134   -1.2383 C   0  0  0  0  0  0  0  0  0  0  0  0
   -0.8863   -4.8494   -0.1013 C   0  0  0  0  0  0  0  0  0  0  0  0
   -0.2176   -3.8572    0.6094 C   0  0  0  0  0  0  0  0  0  0  0  0
   -0.2643   -2.5176    0.1955 C   0  0  0  0  0  0  0  0  0  0  0  0
    0.4128   -1.5289    0.9288 C   0  0  0  0  0  0  0  0  0  0  0  0
    0.3846   -0.1789    0.5462 C   0  0  0  0  0  0  0  0  0  0  0  0
    1.0577    0.8103    1.2837 C   0  0  0  0  0  0  0  0  0  0  0  0
    1.0498    2.1746    0.9073 C   0  0  0  0  0  0  0  0  0  0  0  0
    1.7354    3.1952    1.6300 C   0  0  0  0  0  0  0  0  0  0  0  0
    2.5171    2.9129    2.8542 C   0  0  0  0  0  0  0  0  0  0  0  0
    1.9118    3.1707    4.0985 C   0  0  0  0  0  0  0  0  0  0  0  0
    2.5878    2.9246    5.2882 C   0  0  0  0  0  0  0  0  0  0  0  0
    3.8821    2.4148    5.2538 C   0  0  0  0  0  0  0  0  0  0  0  0
    4.5193    2.1439    4.0335 C   0  0  0  0  0  0  0  0  0  0  0  0
    5.8239    1.6216    4.0207 C   0  0  0  0  0  0  0  0  0  0  0  0
    6.4895    1.3290    2.8203 C   0  0  0  0  0  0  0  0  0  0  0  0
    7.7899    0.7959    2.8102 C   0  0  0  0  0  0  0  0  0  0  0  0
    8.4495    0.4959    1.6064 C   0  0  0  0  0  0  0  0  0  0  0  0
    9.7471   -0.0426    1.5945 C   0  0  0  0  0  0  0  0  0  0  0  0
   10.4045   -0.3456    0.3902 C   0  0  0  0  0  0  0  0  0  0  0  0
   11.7019   -0.8851    0.3789 C   0  0  0  0  0  0  0  0  0  0  0  0
   12.3587   -1.1887   -0.8252 C   0  0  0  0  0  0  0  0  0  0  0  0
   13.6557   -1.7280   -0.8374 C   0  0  0  0  0  0  0  0  0  0  0  0
   14.2947   -2.0243   -2.0424 C   0  0  0  0  0  0  0  0  0  0  0  0
   13.6458   -1.7855   -3.2497 C   0  0  0  0  0  0  0  0  0  0  0  0
   12.3569   -1.2500   -3.2540 C   0  0  0  0  0  0  0  0  0  0  0  0
   11.7006   -0.9465   -2.0497 C   0  0  0  0  0  0  0  0  0  0  0  0
   10.4037   -0.4073   -2.0373 C   0  0  0  0  0  0  0  0  0  0  0  0
    9.7480   -0.1038   -0.8323 C   0  0  0  0  0  0  0  0  0  0  0  0
    8.4509    0.4354   -0.8201 C   0  0  0  0  0  0  0  0  0  0  0  0
    7.7940    0.7383    0.3843 C   0  0  0  0  0  0  0  0  0  0  0  0
    6.4964    1.2761    0.3962 C   0  0  0  0  0  0  0  0  0  0  0  0
    5.8363    1.5725    1.6005 C   0  0  0  0  0  0  0  0  0  0  0  0
    4.5347    2.1028    1.6131 C   0  0  0  0  0  0  0  0  0  0  0  0
    3.8448    2.3935    2.8143 C   0  0  0  0  0  0  0  0  0  0  0  0
    1.6688    4.5265    1.1783 C   0  0  0  0  0  0  0  0  0  0  0  0
    0.9455    4.8606    0.0385 C   0  0  0  0  0  0  0  0  0  0  0  0
    0.2767    3.8675   -0.6704 C   0  0  0  0  0  0  0  0  0  0  0  0
    0.3203    2.5291   -0.2526 C   0  0  0  0  0  0  0  0  0  0  0  0
   -0.3585    1.5406   -0.9844 C   0  0  0  0  0  0  0  0  0  0  0  0
   -0.3319    0.1912   -0.6004 C   0  0  0  0  0  0  0  0  0  0  0  0
   -1.0067   -0.7973   -1.3370 C   0  0  0  0  0  0  0  0  0  0  0  0
   -0.9966   -2.1618   -0.9622 C   0  0  0  0  0  0  0  0  0  0  0  0
  -15.4023    1.9534    2.1371 H   0  0  0  0  0  0  0  0  0  0  0  0
  -14.2330    1.5004    4.2773 H   0  0  0  0  0  0  0  0  0  0  0  0
  -11.9293    0.6268    4.2705 H   0  0  0  0  0  0  0  0  0  0  0  0
   -9.9334   -0.1244    3.0216 H   0  0  0  0  0  0  0  0  0  0  0  0
   -7.9537   -0.8695    1.7817 H   0  0  0  0  0  0  0  0  0  0  0  0
   -5.9735   -1.6146    0.5425 H   0  0  0  0  0  0  0  0  0  0  0  0
   -4.0081   -2.3522   -0.6877 H   0  0  0  0  0  0  0  0  0  0  0  0
   -6.3255   -1.4470   -4.9680 H   0  0  0  0  0  0  0  0  0  0  0  0
   -8.3089   -0.7073   -3.7357 H   0  0  0  0  0  0  0  0  0  0  0  0
  -10.2913    0.0366   -2.4971 H   0  0  0  0  0  0  0  0  0  0  0  0
  -12.2726    0.7819   -1.2584 H   0  0  0  0  0  0  0  0  0  0  0  0
  -14.2676    1.5327   -0.0088 H   0  0  0  0  0  0  0  0  0  0  0  0
   -4.3737   -2.1676   -6.2209 H   0  0  0  0  0  0  0  0  0  0  0  0
   -2.0691   -3.0225   -6.2928 H   0  0  0  0  0  0  0  0  0  0  0  0
   -0.8459   -3.4837   -4.2028 H   0  0  0  0  0  0  0  0  0  0  0  0
   -2.1362   -5.2967   -1.7838 H   0  0  0  0  0  0  0  0  0  0  0  0
   -0.8422   -5.8827    0.2319 H   0  0  0  0  0  0  0  0  0  0  0  0
    0.3445   -4.1398    1.4974 H   0  0  0  0  0  0  0  0  0  0  0  0
    0.9740   -1.8140    1.8176 H   0  0  0  0  0  0  0  0  0  0  0  0
    1.6067    0.5049    2.1734 H   0  0  0  0  0  0  0  0  0  0  0  0
    0.8970    3.5636    4.1371 H   0  0  0  0  0  0  0  0  0  0  0  0
    2.1059    3.1276    6.2409 H   0  0  0  0  0  0  0  0  0  0  0  0
    4.3933    2.2265    6.1958 H   0  0  0  0  0  0  0  0  0  0  0  0
    6.3313    1.4333    4.9654 H   0  0  0  0  0  0  0  0  0  0  0  0
    8.2956    0.6080    3.7556 H   0  0  0  0  0  0  0  0  0  0  0  0
   10.2544   -0.2302    2.5392 H   0  0  0  0  0  0  0  0  0  0  0  0
   12.2100   -1.0723    1.3232 H   0  0  0  0  0  0  0  0  0  0  0  0
   14.1795   -1.9218    0.0960 H   0  0  0  0  0  0  0  0  0  0  0  0
   15.2984   -2.4412   -2.0367 H   0  0  0  0  0  0  0  0  0  0  0  0
   14.1414   -2.0155   -4.1892 H   0  0  0  0  0  0  0  0  0  0  0  0
   11.8660   -1.0704   -4.2078 H   0  0  0  0  0  0  0  0  0  0  0  0
    9.8963   -0.2205   -2.9820 H   0  0  0  0  0  0  0  0  0  0  0  0
    7.9419    0.6218   -1.7643 H   0  0  0  0  0  0  0  0  0  0  0  0
    5.9885    1.4641   -0.5484 H   0  0  0  0  0  0  0  0  0  0  0  0
    4.0433    2.2855    0.6583 H   0  0  0  0  0  0  0  0  0  0  0  0
    2.1912    5.3110    1.7232 H   0  0  0  0  0  0  0  0  0  0  0  0
    0.9029    5.8932   -0.2972 H   0  0  0  0  0  0  0  0  0  0  0  0
   -0.2842    4.1478   -1.5601 H   0  0  0  0  0  0  0  0  0  0  0  0
   -0.9199    1.8253   -1.8733 H   0  0  0  0  0  0  0  0  0  0  0  0
   -1.5587   -0.4915   -2.2248 H   0  0  0  0  0  0  0  0  0  0  0  0
  1  2  4  0
  2  3  4  0
  3  4  4  0
  4  5  4  0
  5  6  4  0
  6  7  4  0
  7  8  4  0
  8  9  4  0
  9 10  4  0
 10 11  4  0
 11 12  4  0
 12 13  4  0
 13 14  4  0
 14 15  4  0
 15 16  4  0
 16 17  4  0
 17 18  4  0
 18 19  4  0
 19 20  4  0
 20 21  4  0
 21 22  4  0
 13 23  4  0
 23 24  4  0
 24 25  4  0
 25 26  4  0
 26 27  1  0
 27 28  4  0
 28 29  4  0
 29 30  4  0
 30 31  4  0
 31 32  4  0
 32 33  4  0
 33 34  4  0
 34 35  4  0
 35 36  4  0
 36 37  1  0
 37 38  4  0
 38 39  4  0
 39 40  4  0
 40 41  4  0
 41 42  4  0
 42 43  4  0
 43 44  4  0
 44 45  4  0
 45 46  4  0
 46 47  4  0
 47 48  4  0
 48 49  4  0
 49 50  4  0
 50 51  4  0
 51 52  4  0
 52 53  4  0
 53 54  4  0
 54 55  4  0
 55 56  4  0
 56 57  4  0
 57 58  4  0
 58 59  4  0
 59 60  4  0
 60 61  4  0
 61 62  4  0
 36 63  4  0
 63 64  4  0
 64 65  4  0
 65 66  4  0
 66 67  4  0
 67 68  4  0
 68 69  4  0
 69 70  4  0
 22  1  4  0
 70 27  4  0
 21  4  4  0
 70 31  4  0
 19  6  4  0
 68 33  4  0
 17  8  4  0
 66 35  4  0
 15 10  4  0
 62 37  4  0
 26 12  4  0
 62 41  4  0
 60 43  4  0
 58 45  4  0
 56 47  4  0
 54 49  4  0
  1 71  1  0
  2 72  1  0
  3 73  1  0
  5 74  1  0
  7 75  1  0
  9 76  1  0
 11 77  1  0
 14 78  1  0
 16 79  1  0
 18 80  1  0
 20 81  1  0
 22 82  1  0
 23 83  1  0
 24 84  1  0
 25 85  1  0
 28 86  1  0
 29 87  1  0
 30 88  1  0
 32 89  1  0
 34 90  1  0
 38 91  1  0
 39 92  1  0
 40 93  1  0
 42 94  1  0
 44 95  1  0
 46 96  1  0
 48 97  1  0
 50 98  1  0
 51 99  1  0
 52100  1  0
 53101  1  0
 55102  1  0
 57103  1  0
 59104  1  0
 61105  1  0
 63106  1  0
 64107  1  0
 65108  1  0
 67109  1  0
 69110  1  0
M  END
