
     RDKit          3D

110125  0  0  0  0  0  0  0  0999 V2000
   -8.5892    1.6632    6.2837 C   0  0  0  0  0  0  0  0  0  0  0  0
   -7.4223    2.3836    6.5187 C   0  0  0  0  0  0  0  0  0  0  0  0
   -6.4909    2.5551    5.4933 C   0  0  0  0  0  0  0  0  0  0  0  0
   -6.7154    2.0075    4.2193 C   0  0  0  0  0  0  0  0  0  0  0  0
   -5.7887    2.1711    3.1766 C   0  0  0  0  0  0  0  0  0  0  0  0
   -6.0142    1.6230    1.9021 C   0  0  0  0  0  0  0  0  0  0  0  0
   -5.0888    1.7855    0.8555 C   0  0  0  0  0  0  0  0  0  0  0  0
   -5.2915    1.2427   -0.4389 C   0  0  0  0  0  0  0  0  0  0  0  0
   -6.4791    0.5137   -0.6517 C   0  0  0  0  0  0  0  0  0  0  0  0
   -7.4077    0.3498    0.3918 C   0  0  0  0  0  0  0  0  0  0  0  0
   -7.1910    0.8950    1.6659 C   0  0  0  0  0  0  0  0  0  0  0  0
   -8.1209    0.7290    2.7069 C   0  0  0  0  0  0  0  0  0  0  0  0
   -7.8984    1.2766    3.9811 C   0  0  0  0  0  0  0  0  0  0  0  0
   -8.8264    1.1129    5.0231 C   0  0  0  0  0  0  0  0  0  0  0  0
   -6.7339   -0.0494   -1.9081 C   0  0  0  0  0  0  0  0  0  0  0  0
   -5.8395    0.0851   -2.9771 C   0  0  0  0  0  0  0  0  0  0  0  0
   -6.1397   -0.4997   -4.2205 C   0  0  0  0  0  0  0  0  0  0  0  0
   -5.2708   -0.3912   -5.3158 C   0  0  0  0  0  0  0  0  0  0  0  0
   -5.5722   -0.9754   -6.5578 C   0  0  0  0  0  0  0  0  0  0  0  0
   -4.6926   -0.8563   -7.6348 C   0  0  0  0  0  0  0  0  0  0  0  0
   -3.5015   -0.1535   -7.4825 C   0  0  0  0  0  0  0  0  0  0  0  0
   -3.1907    0.4318   -6.2542 C   0  0  0  0  0  0  0  0  0  0  0  0
   -4.0681    0.3212   -5.1624 C   0  0  0  0  0  0  0  0  0  0  0  0
   -3.7738    0.9056   -3.9182 C   0  0  0  0  0  0  0  0  0  0  0  0
   -4.6415    0.8072   -2.8007 C   0  0  0  0  0  0  0  0  0  0  0  0
   -4.3657    1.3923   -1.5222 C   0  0  0  0  0  0  0  0  0  0  0  0
   -3.1123    2.1668   -1.3217 C   0  0  0  0  0  0  0  0  0  0  0  0
   -3.1384    3.5497   -1.5845 C   0  0  0  0  0  0  0  0  0  0  0  0
   -1.9989    4.3292   -1.4233 C   0  0  0  0  0  0  0  0  0  0  0  0
   -0.8133    3.7387   -0.9959 C   0  0  0  0  0  0  0  0  0  0  0  0
   -0.7483    2.3639   -0.7225 C   0  0  0  0  0  0  0  0  0  0  0  0
    0.4577    1.7864   -0.2908 C   0  0  0  0  0  0  0  0  0  0  0  0
    0.5583    0.4158   -0.0054 C   0  0  0  0  0  0  0  0  0  0  0  0
    1.7639   -0.1594    0.4331 C   0  0  0  0  0  0  0  0  0  0  0  0
    1.8815   -1.5377    0.7310 C   0  0  0  0  0  0  0  0  0  0  0  0
    3.0880   -2.1433    1.1905 C   0  0  0  0  0  0  0  0  0  0  0  0
    4.3352   -1.3647    1.4119 C   0  0  0  0  0  0  0  0  0  0  0  0
    4.5619   -0.7352    2.6793 C   0  0  0  0  0  0  0  0  0  0  0  0
    3.6474   -0.7877    3.7625 C   0  0  0  0  0  0  0  0  0  0  0  0
    3.8932   -0.1593    4.9958 C   0  0  0  0  0  0  0  0  0  0  0  0
    2.9699   -0.2242    6.0530 C   0  0  0  0  0  0  0  0  0  0  0  0
    3.2321    0.4062    7.2702 C   0  0  0  0  0  0  0  0  0  0  0  0
    4.4198    1.1091    7.4457 C   0  0  0  0  0  0  0  0  0  0  0  0
    5.3453    1.1822    6.4035 C   0  0  0  0  0  0  0  0  0  0  0  0
    5.0932    0.5521    5.1730 C   0  0  0  0  0  0  0  0  0  0  0  0
    6.0084    0.6148    4.1120 C   0  0  0  0  0  0  0  0  0  0  0  0
    5.7566   -0.0138    2.8791 C   0  0  0  0  0  0  0  0  0  0  0  0
    6.6952    0.0769    1.8437 C   0  0  0  0  0  0  0  0  0  0  0  0
    6.4870   -0.5272    0.5974 C   0  0  0  0  0  0  0  0  0  0  0  0
    7.4575   -0.4038   -0.4132 C   0  0  0  0  0  0  0  0  0  0  0  0
    7.2879   -0.9892   -1.6767 C   0  0  0  0  0  0  0  0  0  0  0  0
    8.2595   -0.8627   -2.6852 C   0  0  0  0  0  0  0  0  0  0  0  0
    8.0830   -1.4490   -3.9493 C   0  0  0  0  0  0  0  0  0  0  0  0
    9.0515   -1.3229   -4.9591 C   0  0  0  0  0  0  0  0  0  0  0  0
    8.8595   -1.9115   -6.2101 C   0  0  0  0  0  0  0  0  0  0  0  0
    7.6981   -2.6335   -6.4671 C   0  0  0  0  0  0  0  0  0  0  0  0
    6.7269   -2.7678   -5.4738 C   0  0  0  0  0  0  0  0  0  0  0  0
    6.9054   -2.1809   -4.2101 C   0  0  0  0  0  0  0  0  0  0  0  0
    5.9375   -2.3059   -3.1997 C   0  0  0  0  0  0  0  0  0  0  0  0
    6.1160   -1.7174   -1.9357 C   0  0  0  0  0  0  0  0  0  0  0  0
    5.1482   -1.8393   -0.9220 C   0  0  0  0  0  0  0  0  0  0  0  0
    5.3037   -1.2561    0.3615 C   0  0  0  0  0  0  0  0  0  0  0  0
    3.1120   -3.5248    1.4621 C   0  0  0  0  0  0  0  0  0  0  0  0
    1.9760   -4.3067    1.2876 C   0  0  0  0  0  0  0  0  0  0  0  0
    0.7952   -3.7191    0.8431 C   0  0  0  0  0  0  0  0  0  0  0  0
    0.7316   -2.3453    0.5646 C   0  0  0  0  0  0  0  0  0  0  0  0
   -0.4720   -1.7690    0.1248 C   0  0  0  0  0  0  0  0  0  0  0  0
   -0.5728   -0.3982   -0.1595 C   0  0  0  0  0  0  0  0  0  0  0  0
   -1.7797    0.1777   -0.5935 C   0  0  0  0  0  0  0  0  0  0  0  0
   -1.9002    1.5576   -0.8821 C   0  0  0  0  0  0  0  0  0  0  0  0
   -9.3158    1.5284    7.0806 H   0  0  0  0  0  0  0  0  0  0  0  0
   -7.2352    2.8127    7.4995 H   0  0  0  0  0  0  0  0  0  0  0  0
   -5.5844    3.1210    5.6960 H   0  0  0  0  0  0  0  0  0  0  0  0
   -4.8749    2.7341    3.3592 H   0  0  0  0  0  0  0  0  0  0  0  0
   -4.1815    2.3521    1.0612 H   0  0  0  0  0  0  0  0  0  0  0  0
   -8.3205   -0.2155    0.2094 H   0  0  0  0  0  0  0  0  0  0  0  0
   -9.0329    0.1644    2.5222 H   0  0  0  0  0  0  0  0  0  0  0  0
   -9.7444    0.5530    4.8589 H   0  0  0  0  0  0  0  0  0  0  0  0
   -7.6559   -0.6100   -2.0586 H   0  0  0  0  0  0  0  0  0  0  0  0
   -7.0703   -1.0525   -4.3395 H   0  0  0  0  0  0  0  0  0  0  0  0
   -6.4977   -1.5296   -6.6943 H   0  0  0  0  0  0  0  0  0  0  0  0
   -4.9374   -1.3127   -8.5902 H   0  0  0  0  0  0  0  0  0  0  0  0
   -2.8129   -0.0596   -8.3181 H   0  0  0  0  0  0  0  0  0  0  0  0
   -2.2550    0.9775   -6.1533 H   0  0  0  0  0  0  0  0  0  0  0  0
   -2.8366    1.4522   -3.8220 H   0  0  0  0  0  0  0  0  0  0  0  0
   -4.0609    4.0203   -1.9209 H   0  0  0  0  0  0  0  0  0  0  0  0
   -2.0341    5.3952   -1.6319 H   0  0  0  0  0  0  0  0  0  0  0  0
    0.0683    4.3654   -0.8768 H   0  0  0  0  0  0  0  0  0  0  0  0
    1.3388    2.4157   -0.1732 H   0  0  0  0  0  0  0  0  0  0  0  0
    2.6327    0.4874    0.5470 H   0  0  0  0  0  0  0  0  0  0  0  0
    2.7097   -1.3298    3.6458 H   0  0  0  0  0  0  0  0  0  0  0  0
    2.0356   -0.7686    5.9332 H   0  0  0  0  0  0  0  0  0  0  0  0
    2.5085    0.3478    8.0790 H   0  0  0  0  0  0  0  0  0  0  0  0
    4.6268    1.6015    8.3922 H   0  0  0  0  0  0  0  0  0  0  0  0
    6.2679    1.7370    6.5578 H   0  0  0  0  0  0  0  0  0  0  0  0
    6.9367    1.1670    4.2502 H   0  0  0  0  0  0  0  0  0  0  0  0
    7.6148    0.6363    2.0125 H   0  0  0  0  0  0  0  0  0  0  0  0
    8.3660    0.1624   -0.2132 H   0  0  0  0  0  0  0  0  0  0  0  0
    9.1674   -0.2977   -2.4831 H   0  0  0  0  0  0  0  0  0  0  0  0
    9.9661   -0.7630   -4.7773 H   0  0  0  0  0  0  0  0  0  0  0  0
    9.6172   -1.8060   -6.9823 H   0  0  0  0  0  0  0  0  0  0  0  0
    7.5467   -3.0930   -7.4403 H   0  0  0  0  0  0  0  0  0  0  0  0
    5.8256   -3.3361   -5.6930 H   0  0  0  0  0  0  0  0  0  0  0  0
    5.0285   -2.8704   -3.4000 H   0  0  0  0  0  0  0  0  0  0  0  0
    4.2447   -2.4053   -1.1454 H   0  0  0  0  0  0  0  0  0  0  0  0
    4.0297   -3.9922    1.8156 H   0  0  0  0  0  0  0  0  0  0  0  0
    2.0096   -5.3719    1.5004 H   0  0  0  0  0  0  0  0  0  0  0  0
   -0.0845   -4.3474    0.7161 H   0  0  0  0  0  0  0  0  0  0  0  0
   -1.3524   -2.3988    0.0037 H   0  0  0  0  0  0  0  0  0  0  0  0
   -2.6483   -0.4693   -0.7070 H   0  0  0  0  0  0  0  0  0  0  0  0
  1  2  4  0
  2  3  4  0
  3  4  4  0
  4  5  4  0
  5  6  4  0
  6  7  4  0
  7  8  4  0
  8  9  4  0
  9 10  4  0
 10 11  4  0
 11 12  4  0
 12 13  4  0
 13 14  4  0
  9 15  4  0
 15 16  4  0
 16 17  4  0
 17 18  4  0
 18 19  4  0
 19 20  4  0
 20 21  4  0
 21 22  4  0
 22 23  4  0
 23 24  4  0
 24 25  4  0
 25 26  4  0
 26 27  1  0
 27 28  4  0
 28 29  4  0
 29 30  4  0
 30 31  4  0
 31 32  4  0
 32 33  4  0
 33 34  4  0
 34 35  4  0
 35 36  4  0
 36 37  1  0
 37 38  4  0
 38 39  4  0
 39 40  4  0
 40 41  4  0
 41 42  4  0
 42 43  4  0
 43 44  4  0
 44 45  4  0
 45 46  4  0
 46 47  4  0
 47 48  4  0
 48 49  4  0
 49 50  4  0
 50 51  4  0
 51 52  4  0
 52 53  4  0
 53 54  4  0
 54 55  4  0
 55 56  4  0
 56 57  4  0
 57 58  4  0
 58 59  4  0
 59 60  4  0
 60 61  4  0
 61 62  4  0
 36 63  4  0
 63 64  4  0
 64 65  4  0
 65 66  4  0
 66 67  4  0
 67 68  4  0
 68 69  4  0
 69 70  4  0
 14  1  4  0
 25 16  4  0
 70 27  4  0
 13  4  4  0
 23 18  4  0
 70 31  4  0
 11  6  4  0
 68 33  4  0
 26  8  4  0
 66 35  4  0
 62 37  4  0
 47 38  4  0
 62 49  4  0
 45 40  4  0
 60 51  4  0
 58 53  4  0
  1 71  1  0
  2 72  1  0
  3 73  1  0
  5 74  1  0
  7 75  1  0
 10 76  1  0
 12 77  1  0
 14 78  1  0
 15 79  1  0
 17 80  1  0
 19 81  1  0
 20 82  1  0
 21 83  1  0
 22 84  1  0
 24 85  1  0
 28 86  1  0
 29 87  1  0
 30 88  1  0
 32 89  1  0
 34 90  1  0
 39 91  1  0
 41 92  1  0
 42 93  1  0
 43 94  1  0
 44 95  1  0
 46 96  1  0
 48 97  1  0
 50 98  1  0
 52 99  1  0
 54100  1  0
 55101  1  0
 56102  1  0
 57103  1  0
 59104  1  0
 61105  1  0
 63106  1  0
 64107  1  0
 65108  1  0
 67109  1  0
 69110  1  0
M  END
