
     RDKit          3D

110125  0  0  0  0  0  0  0  0999 V2000
  -11.9841   -4.1470    1.5058 C   0  0  0  0  0  0  0  0  0  0  0  0
  -11.1976   -4.2409    2.6496 C   0  0  0  0  0  0  0  0  0  0  0  0
  -10.0165   -3.5035    2.7455 C   0  0  0  0  0  0  0  0  0  0  0  0
   -9.6072   -2.6622    1.6975 C   0  0  0  0  0  0  0  0  0  0  0  0
   -8.4214   -1.9135    1.7785 C   0  0  0  0  0  0  0  0  0  0  0  0
   -8.0128   -1.0723    0.7297 C   0  0  0  0  0  0  0  0  0  0  0  0
   -6.8271   -0.3231    0.8105 C   0  0  0  0  0  0  0  0  0  0  0  0
   -6.4180    0.5185   -0.2380 C   0  0  0  0  0  0  0  0  0  0  0  0
   -5.2322    1.2698   -0.1597 C   0  0  0  0  0  0  0  0  0  0  0  0
   -4.7933    2.1217   -1.2048 C   0  0  0  0  0  0  0  0  0  0  0  0
   -5.6031    2.1974   -2.3565 C   0  0  0  0  0  0  0  0  0  0  0  0
   -6.7924    1.4508   -2.4367 C   0  0  0  0  0  0  0  0  0  0  0  0
   -7.2100    0.6117   -1.3928 C   0  0  0  0  0  0  0  0  0  0  0  0
   -8.3970   -0.1365   -1.4761 C   0  0  0  0  0  0  0  0  0  0  0  0
   -8.8086   -0.9775   -0.4284 C   0  0  0  0  0  0  0  0  0  0  0  0
   -9.9951   -1.7260   -0.5106 C   0  0  0  0  0  0  0  0  0  0  0  0
  -10.4048   -2.5671    0.5374 C   0  0  0  0  0  0  0  0  0  0  0  0
  -11.5908   -3.3156    0.4560 C   0  0  0  0  0  0  0  0  0  0  0  0
   -5.2193    3.0180   -3.4247 C   0  0  0  0  0  0  0  0  0  0  0  0
   -4.0412    3.7737   -3.3926 C   0  0  0  0  0  0  0  0  0  0  0  0
   -3.6937    4.5793   -4.4913 C   0  0  0  0  0  0  0  0  0  0  0  0
   -2.5242    5.3364   -4.4875 C   0  0  0  0  0  0  0  0  0  0  0  0
   -1.6866    5.2977   -3.3831 C   0  0  0  0  0  0  0  0  0  0  0  0
   -2.0227    4.5028   -2.2849 C   0  0  0  0  0  0  0  0  0  0  0  0
   -3.2051    3.7214   -2.2555 C   0  0  0  0  0  0  0  0  0  0  0  0
   -3.5864    2.8920   -1.1519 C   0  0  0  0  0  0  0  0  0  0  0  0
   -2.7253    2.8331    0.0589 C   0  0  0  0  0  0  0  0  0  0  0  0
   -2.9546    3.7721    1.0826 C   0  0  0  0  0  0  0  0  0  0  0  0
   -2.1844    3.7691    2.2399 C   0  0  0  0  0  0  0  0  0  0  0  0
   -1.1715    2.8269    2.3927 C   0  0  0  0  0  0  0  0  0  0  0  0
   -0.9140    1.8744    1.3952 C   0  0  0  0  0  0  0  0  0  0  0  0
    0.1120    0.9303    1.5688 C   0  0  0  0  0  0  0  0  0  0  0  0
    0.3950   -0.0385    0.5935 C   0  0  0  0  0  0  0  0  0  0  0  0
    1.4218   -0.9824    0.7687 C   0  0  0  0  0  0  0  0  0  0  0  0
    1.7231   -1.9635   -0.2053 C   0  0  0  0  0  0  0  0  0  0  0  0
    2.7639   -2.9267   -0.0559 C   0  0  0  0  0  0  0  0  0  0  0  0
    3.6342   -2.9771    1.1486 C   0  0  0  0  0  0  0  0  0  0  0  0
    3.2786   -3.8227    2.2484 C   0  0  0  0  0  0  0  0  0  0  0  0
    2.1119   -4.6272    2.2813 C   0  0  0  0  0  0  0  0  0  0  0  0
    1.8024   -5.4395    3.3747 C   0  0  0  0  0  0  0  0  0  0  0  0
    2.6513   -5.4733    4.4708 C   0  0  0  0  0  0  0  0  0  0  0  0
    3.8044   -4.6914    4.4719 C   0  0  0  0  0  0  0  0  0  0  0  0
    4.1252   -3.8678    3.3782 C   0  0  0  0  0  0  0  0  0  0  0  0
    5.2865   -3.0864    3.4082 C   0  0  0  0  0  0  0  0  0  0  0  0
    5.6436   -2.2475    2.3449 C   0  0  0  0  0  0  0  0  0  0  0  0
    6.8148   -1.4729    2.4245 C   0  0  0  0  0  0  0  0  0  0  0  0
    7.2055   -0.6151    1.3853 C   0  0  0  0  0  0  0  0  0  0  0  0
    8.3729    0.1631    1.4695 C   0  0  0  0  0  0  0  0  0  0  0  0
    8.7580    1.0225    0.4267 C   0  0  0  0  0  0  0  0  0  0  0  0
    9.9243    1.8017    0.5110 C   0  0  0  0  0  0  0  0  0  0  0  0
   10.3085    2.6612   -0.5317 C   0  0  0  0  0  0  0  0  0  0  0  0
   11.4744    3.4407   -0.4483 C   0  0  0  0  0  0  0  0  0  0  0  0
   11.8421    4.2899   -1.4931 C   0  0  0  0  0  0  0  0  0  0  0  0
   11.0498    4.3710   -2.6340 C   0  0  0  0  0  0  0  0  0  0  0  0
    9.8886    3.6029   -2.7318 C   0  0  0  0  0  0  0  0  0  0  0  0
    9.5050    2.7434   -1.6888 C   0  0  0  0  0  0  0  0  0  0  0  0
    8.3392    1.9641   -1.7719 C   0  0  0  0  0  0  0  0  0  0  0  0
    7.9562    1.1047   -0.7280 C   0  0  0  0  0  0  0  0  0  0  0  0
    6.7900    0.3253   -0.8098 C   0  0  0  0  0  0  0  0  0  0  0  0
    6.4064   -0.5335    0.2346 C   0  0  0  0  0  0  0  0  0  0  0  0
    5.2388   -1.3129    0.1570 C   0  0  0  0  0  0  0  0  0  0  0  0
    4.8250   -2.1814    1.1990 C   0  0  0  0  0  0  0  0  0  0  0  0
    2.9930   -3.8658   -1.0797 C   0  0  0  0  0  0  0  0  0  0  0  0
    2.2180   -3.8676   -2.2337 C   0  0  0  0  0  0  0  0  0  0  0  0
    1.2020   -2.9285   -2.3843 C   0  0  0  0  0  0  0  0  0  0  0  0
    0.9445   -1.9759   -1.3868 C   0  0  0  0  0  0  0  0  0  0  0  0
   -0.0831   -1.0333   -1.5592 C   0  0  0  0  0  0  0  0  0  0  0  0
   -0.3653   -0.0639   -0.5843 C   0  0  0  0  0  0  0  0  0  0  0  0
   -1.3906    0.8816   -0.7605 C   0  0  0  0  0  0  0  0  0  0  0  0
   -1.6900    1.8645    0.2121 C   0  0  0  0  0  0  0  0  0  0  0  0
  -12.9042   -4.7205    1.4289 H   0  0  0  0  0  0  0  0  0  0  0  0
  -11.5019   -4.8879    3.4682 H   0  0  0  0  0  0  0  0  0  0  0  0
   -9.4151   -3.5905    3.6477 H   0  0  0  0  0  0  0  0  0  0  0  0
   -7.8059   -1.9870    2.6732 H   0  0  0  0  0  0  0  0  0  0  0  0
   -6.2096   -0.3966    1.7043 H   0  0  0  0  0  0  0  0  0  0  0  0
   -4.6317    1.1809    0.7448 H   0  0  0  0  0  0  0  0  0  0  0  0
   -7.4067    1.5219   -3.3331 H   0  0  0  0  0  0  0  0  0  0  0  0
   -9.0107   -0.0633   -2.3721 H   0  0  0  0  0  0  0  0  0  0  0  0
  -10.6111   -1.6533   -1.4051 H   0  0  0  0  0  0  0  0  0  0  0  0
  -12.2191   -3.2559   -0.4299 H   0  0  0  0  0  0  0  0  0  0  0  0
   -5.8543    3.0681   -4.3086 H   0  0  0  0  0  0  0  0  0  0  0  0
   -4.3376    4.6225   -5.3676 H   0  0  0  0  0  0  0  0  0  0  0  0
   -2.2694    5.9523   -5.3456 H   0  0  0  0  0  0  0  0  0  0  0  0
   -0.7699    5.8814   -3.3692 H   0  0  0  0  0  0  0  0  0  0  0  0
   -1.3363    4.4972   -1.4399 H   0  0  0  0  0  0  0  0  0  0  0  0
   -3.7447    4.5129    0.9714 H   0  0  0  0  0  0  0  0  0  0  0  0
   -2.3723    4.4994    3.0223 H   0  0  0  0  0  0  0  0  0  0  0  0
   -0.5788    2.8409    3.3054 H   0  0  0  0  0  0  0  0  0  0  0  0
    0.7048    0.9479    2.4823 H   0  0  0  0  0  0  0  0  0  0  0  0
    2.0027   -0.9483    1.6895 H   0  0  0  0  0  0  0  0  0  0  0  0
    1.4169   -4.6260    1.4433 H   0  0  0  0  0  0  0  0  0  0  0  0
    0.8969   -6.0402    3.3637 H   0  0  0  0  0  0  0  0  0  0  0  0
    2.4178   -6.1033    5.3247 H   0  0  0  0  0  0  0  0  0  0  0  0
    4.4563   -4.7286    5.3424 H   0  0  0  0  0  0  0  0  0  0  0  0
    5.9289   -3.1297    4.2870 H   0  0  0  0  0  0  0  0  0  0  0  0
    7.4358   -1.5361    3.3169 H   0  0  0  0  0  0  0  0  0  0  0  0
    8.9918    0.0994    2.3626 H   0  0  0  0  0  0  0  0  0  0  0  0
   10.5441    1.7386    1.4036 H   0  0  0  0  0  0  0  0  0  0  0  0
   12.1069    3.3916    0.4353 H   0  0  0  0  0  0  0  0  0  0  0  0
   12.7467    4.8872   -1.4148 H   0  0  0  0  0  0  0  0  0  0  0  0
   11.3342    5.0317   -3.4488 H   0  0  0  0  0  0  0  0  0  0  0  0
    9.2822    3.6803   -3.6315 H   0  0  0  0  0  0  0  0  0  0  0  0
    7.7192    2.0279   -2.6643 H   0  0  0  0  0  0  0  0  0  0  0  0
    6.1682    0.3885   -1.7013 H   0  0  0  0  0  0  0  0  0  0  0  0
    4.6322   -1.2329   -0.7443 H   0  0  0  0  0  0  0  0  0  0  0  0
    3.7871   -4.6028   -0.9713 H   0  0  0  0  0  0  0  0  0  0  0  0
    2.4050   -4.5993   -3.0151 H   0  0  0  0  0  0  0  0  0  0  0  0
    0.6071   -2.9452   -3.2954 H   0  0  0  0  0  0  0  0  0  0  0  0
   -0.6766   -1.0516   -2.4722 H   0  0  0  0  0  0  0  0  0  0  0  0
   -1.9697    0.8486   -1.6823 H   0  0  0  0  0  0  0  0  0  0  0  0
  1  2  4  0
  2  3  4  0
  3  4  4  0
  4  5  4  0
  5  6  4  0
  6  7  4  0
  7  8  4  0
  8  9  4  0
  9 10  4  0
 10 11  4  0
 11 12  4  0
 12 13  4  0
 13 14  4  0
 14 15  4  0
 15 16  4  0
 16 17  4  0
 17 18  4  0
 11 19  4  0
 19 20  4  0
 20 21  4  0
 21 22  4  0
 22 23  4  0
 23 24  4  0
 24 25  4  0
 25 26  4  0
 26 27  1  0
 27 28  4  0
 28 29  4  0
 29 30  4  0
 30 31  4  0
 31 32  4  0
 32 33  4  0
 33 34  4  0
 34 35  4  0
 35 36  4  0
 36 37  1  0
 37 38  4  0
 38 39  4  0
 39 40  4  0
 40 41  4  0
 41 42  4  0
 42 43  4  0
 43 44  4  0
 44 45  4  0
 45 46  4  0
 46 47  4  0
 47 48  4  0
 48 49  4  0
 49 50  4  0
 50 51  4  0
 51 52  4  0
 52 53  4  0
 53 54  4  0
 54 55  4  0
 55 56  4  0
 56 57  4  0
 57 58  4  0
 58 59  4  0
 59 60  4  0
 60 61  4  0
 61 62  4  0
 36 63  4  0
 63 64  4  0
 64 65  4  0
 65 66  4  0
 66 67  4  0
 67 68  4  0
 68 69  4  0
 69 70  4  0
 18  1  4  0
 25 20  4  0
 70 27  4  0
 17  4  4  0
 70 31  4  0
 15  6  4  0
 68 33  4  0
 13  8  4  0
 66 35  4  0
 26 10  4  0
 62 37  4  0
 43 38  4  0
 62 45  4  0
 60 47  4  0
 58 49  4  0
 56 51  4  0
  1 71  1  0
  2 72  1  0
  3 73  1  0
  5 74  1  0
  7 75  1  0
  9 76  1  0
 12 77  1  0
 14 78  1  0
 16 79  1  0
 18 80  1  0
 19 81  1  0
 21 82  1  0
 22 83  1  0
 23 84  1  0
 24 85  1  0
 28 86  1  0
 29 87  1  0
 30 88  1  0
 32 89  1  0
 34 90  1  0
 39 91  1  0
 40 92  1  0
 41 93  1  0
 42 94  1  0
 44 95  1  0
 46 96  1  0
 48 97  1  0
 50 98  1  0
 52 99  1  0
 53100  1  0
 54101  1  0
 55102  1  0
 57103  1  0
 59104  1  0
 61105  1  0
 63106  1  0
 64107  1  0
 65108  1  0
 67109  1  0
 69110  1  0
M  END
