
     RDKit          3D

110125  0  0  0  0  0  0  0  0999 V2000
    6.7242   -6.0126    6.4188 C   0  0  0  0  0  0  0  0  0  0  0  0
    7.2085   -4.7755    5.9910 C   0  0  0  0  0  0  0  0  0  0  0  0
    6.6279   -4.1161    4.8948 C   0  0  0  0  0  0  0  0  0  0  0  0
    7.1037   -2.8707    4.4522 C   0  0  0  0  0  0  0  0  0  0  0  0
    6.5225   -2.2114    3.3555 C   0  0  0  0  0  0  0  0  0  0  0  0
    6.9982   -0.9654    2.9132 C   0  0  0  0  0  0  0  0  0  0  0  0
    6.4177   -0.3050    1.8169 C   0  0  0  0  0  0  0  0  0  0  0  0
    6.8930    0.9413    1.3752 C   0  0  0  0  0  0  0  0  0  0  0  0
    6.3118    1.6018    0.2790 C   0  0  0  0  0  0  0  0  0  0  0  0
    6.7843    2.8473   -0.1626 C   0  0  0  0  0  0  0  0  0  0  0  0
    6.2064    3.5109   -1.2582 C   0  0  0  0  0  0  0  0  0  0  0  0
    6.7060    4.7560   -1.6695 C   0  0  0  0  0  0  0  0  0  0  0  0
    6.1479    5.4299   -2.7513 C   0  0  0  0  0  0  0  0  0  0  0  0
    5.0794    4.8651   -3.4381 C   0  0  0  0  0  0  0  0  0  0  0  0
    4.5495    3.6186   -3.0550 C   0  0  0  0  0  0  0  0  0  0  0  0
    3.4124    3.0805   -3.8324 C   0  0  0  0  0  0  0  0  0  0  0  0
    3.6945    2.3523   -5.0032 C   0  0  0  0  0  0  0  0  0  0  0  0
    2.6701    1.8310   -5.7857 C   0  0  0  0  0  0  0  0  0  0  0  0
    1.3449    2.0316   -5.4117 C   0  0  0  0  0  0  0  0  0  0  0  0
    1.0241    2.7520   -4.2516 C   0  0  0  0  0  0  0  0  0  0  0  0
   -0.3199    2.9439   -3.8908 C   0  0  0  0  0  0  0  0  0  0  0  0
   -0.6779    3.6532   -2.7342 C   0  0  0  0  0  0  0  0  0  0  0  0
   -2.0232    3.8421   -2.3740 C   0  0  0  0  0  0  0  0  0  0  0  0
   -2.4037    4.5417   -1.2045 C   0  0  0  0  0  0  0  0  0  0  0  0
   -3.7603    4.7394   -0.8132 C   0  0  0  0  0  0  0  0  0  0  0  0
   -4.8958    4.2348   -1.6151 C   0  0  0  0  0  0  0  0  0  0  0  0
   -5.3773    2.8974   -1.5029 C   0  0  0  0  0  0  0  0  0  0  0  0
   -4.8252    1.9398   -0.6189 C   0  0  0  0  0  0  0  0  0  0  0  0
   -5.3123    0.6240   -0.5329 C   0  0  0  0  0  0  0  0  0  0  0  0
   -4.7474   -0.3124    0.3496 C   0  0  0  0  0  0  0  0  0  0  0  0
   -5.2332   -1.6279    0.4332 C   0  0  0  0  0  0  0  0  0  0  0  0
   -4.6679   -2.5645    1.3149 C   0  0  0  0  0  0  0  0  0  0  0  0
   -5.1539   -3.8802    1.3980 C   0  0  0  0  0  0  0  0  0  0  0  0
   -4.5881   -4.8167    2.2799 C   0  0  0  0  0  0  0  0  0  0  0  0
   -5.0742   -6.1319    2.3627 C   0  0  0  0  0  0  0  0  0  0  0  0
   -4.5092   -7.0687    3.2440 C   0  0  0  0  0  0  0  0  0  0  0  0
   -5.0039   -8.3719    3.3143 C   0  0  0  0  0  0  0  0  0  0  0  0
   -6.0688   -8.7552    2.5051 C   0  0  0  0  0  0  0  0  0  0  0  0
   -6.6408   -7.8359    1.6243 C   0  0  0  0  0  0  0  0  0  0  0  0
   -6.1542   -6.5207    1.5420 C   0  0  0  0  0  0  0  0  0  0  0  0
   -6.7189   -5.5839    0.6607 C   0  0  0  0  0  0  0  0  0  0  0  0
   -6.2318   -4.2684    0.5787 C   0  0  0  0  0  0  0  0  0  0  0  0
   -6.7967   -3.3314   -0.3030 C   0  0  0  0  0  0  0  0  0  0  0  0
   -6.3106   -2.0158   -0.3857 C   0  0  0  0  0  0  0  0  0  0  0  0
   -6.8751   -1.0787   -1.2674 C   0  0  0  0  0  0  0  0  0  0  0  0
   -6.3877    0.2368   -1.3498 C   0  0  0  0  0  0  0  0  0  0  0  0
   -6.9487    1.1751   -2.2301 C   0  0  0  0  0  0  0  0  0  0  0  0
   -6.4613    2.4903   -2.3166 C   0  0  0  0  0  0  0  0  0  0  0  0
   -7.0456    3.4006   -3.2105 C   0  0  0  0  0  0  0  0  0  0  0  0
   -6.5751    4.7062   -3.3133 C   0  0  0  0  0  0  0  0  0  0  0  0
   -5.5092    5.1189   -2.5221 C   0  0  0  0  0  0  0  0  0  0  0  0
   -4.0440    5.4438    0.3713 C   0  0  0  0  0  0  0  0  0  0  0  0
   -3.0202    5.9488    1.1653 C   0  0  0  0  0  0  0  0  0  0  0  0
   -1.6946    5.7598    0.7862 C   0  0  0  0  0  0  0  0  0  0  0  0
   -1.3722    5.0634   -0.3881 C   0  0  0  0  0  0  0  0  0  0  0  0
   -0.0279    4.8819   -0.7546 C   0  0  0  0  0  0  0  0  0  0  0  0
    0.3312    4.1831   -1.9176 C   0  0  0  0  0  0  0  0  0  0  0  0
    1.6765    3.9993   -2.2820 C   0  0  0  0  0  0  0  0  0  0  0  0
    2.0563    3.2861   -3.4437 C   0  0  0  0  0  0  0  0  0  0  0  0
    5.1187    2.9235   -1.9476 C   0  0  0  0  0  0  0  0  0  0  0  0
    4.6537    1.6675   -1.4887 C   0  0  0  0  0  0  0  0  0  0  0  0
    5.2320    1.0036   -0.3918 C   0  0  0  0  0  0  0  0  0  0  0  0
    4.7557   -0.2431    0.0499 C   0  0  0  0  0  0  0  0  0  0  0  0
    5.3353   -0.9049    1.1461 C   0  0  0  0  0  0  0  0  0  0  0  0
    4.8594   -2.1512    1.5884 C   0  0  0  0  0  0  0  0  0  0  0  0
    5.4394   -2.8120    2.6849 C   0  0  0  0  0  0  0  0  0  0  0  0
    4.9627   -4.0581    3.1270 C   0  0  0  0  0  0  0  0  0  0  0  0
    5.5427   -4.7180    4.2232 C   0  0  0  0  0  0  0  0  0  0  0  0
    5.0667   -5.9634    4.6658 C   0  0  0  0  0  0  0  0  0  0  0  0
    5.6541   -6.6061    5.7567 C   0  0  0  0  0  0  0  0  0  0  0  0
    7.1831   -6.5113    7.2685 H   0  0  0  0  0  0  0  0  0  0  0  0
    8.0458   -4.3277    6.5216 H   0  0  0  0  0  0  0  0  0  0  0  0
    7.9407   -2.4070    4.9710 H   0  0  0  0  0  0  0  0  0  0  0  0
    7.8352   -0.5011    3.4318 H   0  0  0  0  0  0  0  0  0  0  0  0
    7.7297    1.4058    1.8940 H   0  0  0  0  0  0  0  0  0  0  0  0
    7.6208    3.3096    0.3590 H   0  0  0  0  0  0  0  0  0  0  0  0
    7.5417    5.2146   -1.1448 H   0  0  0  0  0  0  0  0  0  0  0  0
    6.5449    6.3938   -3.0584 H   0  0  0  0  0  0  0  0  0  0  0  0
    4.6479    5.4018   -4.2816 H   0  0  0  0  0  0  0  0  0  0  0  0
    4.7279    2.1901   -5.3053 H   0  0  0  0  0  0  0  0  0  0  0  0
    2.9037    1.2703   -6.6867 H   0  0  0  0  0  0  0  0  0  0  0  0
    0.5570    1.6172   -6.0377 H   0  0  0  0  0  0  0  0  0  0  0  0
   -1.1062    2.5302   -4.5208 H   0  0  0  0  0  0  0  0  0  0  0  0
   -2.7937    3.4264   -3.0220 H   0  0  0  0  0  0  0  0  0  0  0  0
   -3.9889    2.2226    0.0192 H   0  0  0  0  0  0  0  0  0  0  0  0
   -3.9136   -0.0111    0.9817 H   0  0  0  0  0  0  0  0  0  0  0  0
   -3.8344   -2.2640    1.9475 H   0  0  0  0  0  0  0  0  0  0  0  0
   -3.7549   -4.5171    2.9131 H   0  0  0  0  0  0  0  0  0  0  0  0
   -3.6761   -6.7882    3.8845 H   0  0  0  0  0  0  0  0  0  0  0  0
   -4.5569   -9.0862    4.0008 H   0  0  0  0  0  0  0  0  0  0  0  0
   -6.4556   -9.7695    2.5581 H   0  0  0  0  0  0  0  0  0  0  0  0
   -7.4725   -8.1543    0.9999 H   0  0  0  0  0  0  0  0  0  0  0  0
   -7.5519   -5.8846    0.0278 H   0  0  0  0  0  0  0  0  0  0  0  0
   -7.6296   -3.6316   -0.9363 H   0  0  0  0  0  0  0  0  0  0  0  0
   -7.7082   -1.3784   -1.9008 H   0  0  0  0  0  0  0  0  0  0  0  0
   -7.7825    0.8741   -2.8623 H   0  0  0  0  0  0  0  0  0  0  0  0
   -7.8790    3.0959   -3.8403 H   0  0  0  0  0  0  0  0  0  0  0  0
   -7.0370    5.3999   -4.0108 H   0  0  0  0  0  0  0  0  0  0  0  0
   -5.1440    6.1405   -2.6147 H   0  0  0  0  0  0  0  0  0  0  0  0
   -5.0776    5.5962    0.6778 H   0  0  0  0  0  0  0  0  0  0  0  0
   -3.2549    6.4894    2.0783 H   0  0  0  0  0  0  0  0  0  0  0  0
   -0.9074    6.1627    1.4205 H   0  0  0  0  0  0  0  0  0  0  0  0
    0.7575    5.2896   -0.1199 H   0  0  0  0  0  0  0  0  0  0  0  0
    2.4476    4.4207   -1.6384 H   0  0  0  0  0  0  0  0  0  0  0  0
    3.8155    1.1916   -1.9962 H   0  0  0  0  0  0  0  0  0  0  0  0
    3.9178   -0.7056   -0.4694 H   0  0  0  0  0  0  0  0  0  0  0  0
    4.0219   -2.6149    1.0699 H   0  0  0  0  0  0  0  0  0  0  0  0
    4.1254   -4.5226    2.6093 H   0  0  0  0  0  0  0  0  0  0  0  0
    4.2311   -6.4436    4.1615 H   0  0  0  0  0  0  0  0  0  0  0  0
    5.2752   -7.5694    6.0880 H   0  0  0  0  0  0  0  0  0  0  0  0
  1  2  4  0
  2  3  4  0
  3  4  4  0
  4  5  4  0
  5  6  4  0
  6  7  4  0
  7  8  4  0
  8  9  4  0
  9 10  4  0
 10 11  4  0
 11 12  4  0
 12 13  4  0
 13 14  4  0
 14 15  4  0
 15 16  1  0
 16 17  4  0
 17 18  4  0
 18 19  4  0
 19 20  4  0
 20 21  4  0
 21 22  4  0
 22 23  4  0
 23 24  4  0
 24 25  4  0
 25 26  1  0
 26 27  4  0
 27 28  4  0
 28 29  4  0
 29 30  4  0
 30 31  4  0
 31 32  4  0
 32 33  4  0
 33 34  4  0
 34 35  4  0
 35 36  4  0
 36 37  4  0
 37 38  4  0
 38 39  4  0
 39 40  4  0
 40 41  4  0
 41 42  4  0
 42 43  4  0
 43 44  4  0
 44 45  4  0
 45 46  4  0
 46 47  4  0
 47 48  4  0
 48 49  4  0
 49 50  4  0
 50 51  4  0
 25 52  4  0
 52 53  4  0
 53 54  4  0
 54 55  4  0
 55 56  4  0
 56 57  4  0
 57 58  4  0
 58 59  4  0
 15 60  4  0
 60 61  4  0
 61 62  4  0
 62 63  4  0
 63 64  4  0
 64 65  4  0
 65 66  4  0
 66 67  4  0
 67 68  4  0
 68 69  4  0
 69 70  4  0
 70  1  4  0
 68  3  4  0
 66  5  4  0
 64  7  4  0
 62  9  4  0
 60 11  4  0
 59 16  4  0
 59 20  4  0
 57 22  4  0
 55 24  4  0
 51 26  4  0
 48 27  4  0
 46 29  4  0
 44 31  4  0
 42 33  4  0
 40 35  4  0
  1 71  1  0
  2 72  1  0
  4 73  1  0
  6 74  1  0
  8 75  1  0
 10 76  1  0
 12 77  1  0
 13 78  1  0
 14 79  1  0
 17 80  1  0
 18 81  1  0
 19 82  1  0
 21 83  1  0
 23 84  1  0
 28 85  1  0
 30 86  1  0
 32 87  1  0
 34 88  1  0
 36 89  1  0
 37 90  1  0
 38 91  1  0
 39 92  1  0
 41 93  1  0
 43 94  1  0
 45 95  1  0
 47 96  1  0
 49 97  1  0
 50 98  1  0
 51 99  1  0
 52100  1  0
 53101  1  0
 54102  1  0
 56103  1  0
 58104  1  0
 61105  1  0
 63106  1  0
 65107  1  0
 67108  1  0
 69109  1  0
 70110  1  0
M  END
