
     RDKit          3D

110125  0  0  0  0  0  0  0  0999 V2000
  -17.8590    2.0929   -0.4154 C   0  0  0  0  0  0  0  0  0  0  0  0
  -16.8556    1.4907   -1.1761 C   0  0  0  0  0  0  0  0  0  0  0  0
  -15.5927    1.2265   -0.6202 C   0  0  0  0  0  0  0  0  0  0  0  0
  -14.5723    0.6211   -1.3723 C   0  0  0  0  0  0  0  0  0  0  0  0
  -13.3093    0.3571   -0.8155 C   0  0  0  0  0  0  0  0  0  0  0  0
  -12.2887   -0.2485   -1.5680 C   0  0  0  0  0  0  0  0  0  0  0  0
  -11.0254   -0.5130   -1.0124 C   0  0  0  0  0  0  0  0  0  0  0  0
  -10.0050   -1.1187   -1.7652 C   0  0  0  0  0  0  0  0  0  0  0  0
   -8.7419   -1.3839   -1.2099 C   0  0  0  0  0  0  0  0  0  0  0  0
   -7.7224   -1.9901   -1.9635 C   0  0  0  0  0  0  0  0  0  0  0  0
   -6.4595   -2.2543   -1.4085 C   0  0  0  0  0  0  0  0  0  0  0  0
   -5.4413   -2.8588   -2.1614 C   0  0  0  0  0  0  0  0  0  0  0  0
   -4.1897   -3.1130   -1.5955 C   0  0  0  0  0  0  0  0  0  0  0  0
   -3.9254   -2.7680   -0.2649 C   0  0  0  0  0  0  0  0  0  0  0  0
   -2.6064   -3.0325    0.3310 C   0  0  0  0  0  0  0  0  0  0  0  0
   -2.3924   -4.2826    0.9394 C   0  0  0  0  0  0  0  0  0  0  0  0
   -1.1680   -4.5951    1.5200 C   0  0  0  0  0  0  0  0  0  0  0  0
   -0.1364   -3.6611    1.5017 C   0  0  0  0  0  0  0  0  0  0  0  0
   -0.3121   -2.4037    0.9049 C   0  0  0  0  0  0  0  0  0  0  0  0
    0.7411   -1.4733    0.8968 C   0  0  0  0  0  0  0  0  0  0  0  0
    0.6020   -0.2059    0.3097 C   0  0  0  0  0  0  0  0  0  0  0  0
    1.6566    0.7246    0.3035 C   0  0  0  0  0  0  0  0  0  0  0  0
    1.5335    2.0071   -0.2828 C   0  0  0  0  0  0  0  0  0  0  0  0
    2.5858    2.9687   -0.3012 C   0  0  0  0  0  0  0  0  0  0  0  0
    3.9041    2.7055    0.2968 C   0  0  0  0  0  0  0  0  0  0  0  0
    4.1566    3.0217    1.6368 C   0  0  0  0  0  0  0  0  0  0  0  0
    5.4081    2.7692    2.2039 C   0  0  0  0  0  0  0  0  0  0  0  0
    6.4381    2.1958    1.4427 C   0  0  0  0  0  0  0  0  0  0  0  0
    7.7015    1.9346    1.9983 C   0  0  0  0  0  0  0  0  0  0  0  0
    8.7322    1.3590    1.2363 C   0  0  0  0  0  0  0  0  0  0  0  0
    9.9958    1.0965    1.7918 C   0  0  0  0  0  0  0  0  0  0  0  0
   11.0266    0.5203    1.0303 C   0  0  0  0  0  0  0  0  0  0  0  0
   12.2901    0.2578    1.5859 C   0  0  0  0  0  0  0  0  0  0  0  0
   13.3211   -0.3185    0.8247 C   0  0  0  0  0  0  0  0  0  0  0  0
   14.5843   -0.5806    1.3814 C   0  0  0  0  0  0  0  0  0  0  0  0
   15.6150   -1.1565    0.6205 C   0  0  0  0  0  0  0  0  0  0  0  0
   16.8781   -1.4188    1.1764 C   0  0  0  0  0  0  0  0  0  0  0  0
   17.8920   -1.9916    0.4071 C   0  0  0  0  0  0  0  0  0  0  0  0
   17.6565   -2.3094   -0.9268 C   0  0  0  0  0  0  0  0  0  0  0  0
   16.4066   -2.0548   -1.4935 C   0  0  0  0  0  0  0  0  0  0  0  0
   15.3761   -1.4787   -0.7322 C   0  0  0  0  0  0  0  0  0  0  0  0
   14.1130   -1.2163   -1.2878 C   0  0  0  0  0  0  0  0  0  0  0  0
   13.0826   -0.6401   -0.5256 C   0  0  0  0  0  0  0  0  0  0  0  0
   11.8189   -0.3774   -1.0811 C   0  0  0  0  0  0  0  0  0  0  0  0
   10.7881    0.1988   -0.3196 C   0  0  0  0  0  0  0  0  0  0  0  0
    9.5245    0.4614   -0.8753 C   0  0  0  0  0  0  0  0  0  0  0  0
    8.4938    1.0377   -0.1140 C   0  0  0  0  0  0  0  0  0  0  0  0
    7.2307    1.3000   -0.6705 C   0  0  0  0  0  0  0  0  0  0  0  0
    6.1994    1.8746    0.0906 C   0  0  0  0  0  0  0  0  0  0  0  0
    4.9350    2.1349   -0.4660 C   0  0  0  0  0  0  0  0  0  0  0  0
    2.3711    4.2191   -0.9087 C   0  0  0  0  0  0  0  0  0  0  0  0
    1.1474    4.5309   -1.4910 C   0  0  0  0  0  0  0  0  0  0  0  0
    0.1169    3.5957   -1.4749 C   0  0  0  0  0  0  0  0  0  0  0  0
    0.2930    2.3380   -0.8786 C   0  0  0  0  0  0  0  0  0  0  0  0
   -0.7596    1.4070   -0.8718 C   0  0  0  0  0  0  0  0  0  0  0  0
   -0.6199    0.1397   -0.2846 C   0  0  0  0  0  0  0  0  0  0  0  0
   -1.6746   -0.7904   -0.2780 C   0  0  0  0  0  0  0  0  0  0  0  0
   -1.5529   -2.0722    0.3101 C   0  0  0  0  0  0  0  0  0  0  0  0
   -4.9451   -2.1673    0.4900 C   0  0  0  0  0  0  0  0  0  0  0  0
   -6.2093   -1.9043   -0.0657 C   0  0  0  0  0  0  0  0  0  0  0  0
   -7.2293   -1.2991    0.6871 C   0  0  0  0  0  0  0  0  0  0  0  0
   -8.4926   -1.0344    0.1313 C   0  0  0  0  0  0  0  0  0  0  0  0
   -9.5129   -0.4284    0.8839 C   0  0  0  0  0  0  0  0  0  0  0  0
  -10.7764   -0.1635    0.3285 C   0  0  0  0  0  0  0  0  0  0  0  0
  -11.7969    0.4423    1.0812 C   0  0  0  0  0  0  0  0  0  0  0  0
  -13.0604    0.7070    0.5258 C   0  0  0  0  0  0  0  0  0  0  0  0
  -14.0805    1.3127    1.2791 C   0  0  0  0  0  0  0  0  0  0  0  0
  -15.3434    1.5770    0.7236 C   0  0  0  0  0  0  0  0  0  0  0  0
  -16.3635    2.1825    1.4762 C   0  0  0  0  0  0  0  0  0  0  0  0
  -17.6131    2.4385    0.9097 C   0  0  0  0  0  0  0  0  0  0  0  0
  -18.8313    2.2914   -0.8586 H   0  0  0  0  0  0  0  0  0  0  0  0
  -17.0672    1.2279   -2.2102 H   0  0  0  0  0  0  0  0  0  0  0  0
  -14.7648    0.3508   -2.4089 H   0  0  0  0  0  0  0  0  0  0  0  0
  -12.4817   -0.5188   -2.6047 H   0  0  0  0  0  0  0  0  0  0  0  0
  -10.1976   -1.3888   -2.8020 H   0  0  0  0  0  0  0  0  0  0  0  0
   -7.9149   -2.2608   -3.0002 H   0  0  0  0  0  0  0  0  0  0  0  0
   -5.6140   -3.1377   -3.1986 H   0  0  0  0  0  0  0  0  0  0  0  0
   -3.4156   -3.5804   -2.2011 H   0  0  0  0  0  0  0  0  0  0  0  0
   -3.1925   -5.0206    0.9603 H   0  0  0  0  0  0  0  0  0  0  0  0
   -1.0172   -5.5648    1.9866 H   0  0  0  0  0  0  0  0  0  0  0  0
    0.8143   -3.9244    1.9612 H   0  0  0  0  0  0  0  0  0  0  0  0
    1.6912   -1.7401    1.3575 H   0  0  0  0  0  0  0  0  0  0  0  0
    2.5991    0.4394    0.7692 H   0  0  0  0  0  0  0  0  0  0  0  0
    3.3735    3.4651    2.2487 H   0  0  0  0  0  0  0  0  0  0  0  0
    5.5708    3.0244    3.2487 H   0  0  0  0  0  0  0  0  0  0  0  0
    7.8854    2.1830    3.0421 H   0  0  0  0  0  0  0  0  0  0  0  0
   10.1804    1.3452    2.8354 H   0  0  0  0  0  0  0  0  0  0  0  0
   12.4751    0.5063    2.6295 H   0  0  0  0  0  0  0  0  0  0  0  0
   14.7692   -0.3322    2.4250 H   0  0  0  0  0  0  0  0  0  0  0  0
   17.0813   -1.1775    2.2173 H   0  0  0  0  0  0  0  0  0  0  0  0
   18.8645   -2.1890    0.8505 H   0  0  0  0  0  0  0  0  0  0  0  0
   18.4445   -2.7555   -1.5278 H   0  0  0  0  0  0  0  0  0  0  0  0
   16.2417   -2.3101   -2.5378 H   0  0  0  0  0  0  0  0  0  0  0  0
   13.9293   -1.4651   -2.3314 H   0  0  0  0  0  0  0  0  0  0  0  0
   11.6351   -0.6259   -2.1249 H   0  0  0  0  0  0  0  0  0  0  0  0
    9.3400    0.2132   -1.9191 H   0  0  0  0  0  0  0  0  0  0  0  0
    7.0467    1.0520   -1.7145 H   0  0  0  0  0  0  0  0  0  0  0  0
    4.7423    1.8877   -1.5091 H   0  0  0  0  0  0  0  0  0  0  0  0
    3.1701    4.9585   -0.9266 H   0  0  0  0  0  0  0  0  0  0  0  0
    0.9964    5.5012   -1.9563 H   0  0  0  0  0  0  0  0  0  0  0  0
   -0.8335    3.8585   -1.9353 H   0  0  0  0  0  0  0  0  0  0  0  0
   -1.7098    1.6731   -1.3329 H   0  0  0  0  0  0  0  0  0  0  0  0
   -2.6165   -0.5054   -0.7448 H   0  0  0  0  0  0  0  0  0  0  0  0
   -4.7434   -1.8984    1.5260 H   0  0  0  0  0  0  0  0  0  0  0  0
   -7.0360   -1.0289    1.7239 H   0  0  0  0  0  0  0  0  0  0  0  0
   -9.3200   -0.1581    1.9207 H   0  0  0  0  0  0  0  0  0  0  0  0
  -11.6051    0.7126    2.1181 H   0  0  0  0  0  0  0  0  0  0  0  0
  -13.8888    1.5833    2.3159 H   0  0  0  0  0  0  0  0  0  0  0  0
  -16.1907    2.4600    2.5136 H   0  0  0  0  0  0  0  0  0  0  0  0
  -18.3929    2.9075    1.5039 H   0  0  0  0  0  0  0  0  0  0  0  0
  1  2  4  0
  2  3  4  0
  3  4  4  0
  4  5  4  0
  5  6  4  0
  6  7  4  0
  7  8  4  0
  8  9  4  0
  9 10  4  0
 10 11  4  0
 11 12  4  0
 12 13  4  0
 13 14  4  0
 14 15  1  0
 15 16  4  0
 16 17  4  0
 17 18  4  0
 18 19  4  0
 19 20  4  0
 20 21  4  0
 21 22  4  0
 22 23  4  0
 23 24  4  0
 24 25  1  0
 25 26  4  0
 26 27  4  0
 27 28  4  0
 28 29  4  0
 29 30  4  0
 30 31  4  0
 31 32  4  0
 32 33  4  0
 33 34  4  0
 34 35  4  0
 35 36  4  0
 36 37  4  0
 37 38  4  0
 38 39  4  0
 39 40  4  0
 40 41  4  0
 41 42  4  0
 42 43  4  0
 43 44  4  0
 44 45  4  0
 45 46  4  0
 46 47  4  0
 47 48  4  0
 48 49  4  0
 49 50  4  0
 24 51  4  0
 51 52  4  0
 52 53  4  0
 53 54  4  0
 54 55  4  0
 55 56  4  0
 56 57  4  0
 57 58  4  0
 14 59  4  0
 59 60  4  0
 60 61  4  0
 61 62  4  0
 62 63  4  0
 63 64  4  0
 64 65  4  0
 65 66  4  0
 66 67  4  0
 67 68  4  0
 68 69  4  0
 69 70  4  0
 70  1  4  0
 68  3  4  0
 66  5  4  0
 64  7  4  0
 62  9  4  0
 60 11  4  0
 58 15  4  0
 58 19  4  0
 56 21  4  0
 54 23  4  0
 50 25  4  0
 49 28  4  0
 47 30  4  0
 45 32  4  0
 43 34  4  0
 41 36  4  0
  1 71  1  0
  2 72  1  0
  4 73  1  0
  6 74  1  0
  8 75  1  0
 10 76  1  0
 12 77  1  0
 13 78  1  0
 16 79  1  0
 17 80  1  0
 18 81  1  0
 20 82  1  0
 22 83  1  0
 26 84  1  0
 27 85  1  0
 29 86  1  0
 31 87  1  0
 33 88  1  0
 35 89  1  0
 37 90  1  0
 38 91  1  0
 39 92  1  0
 40 93  1  0
 42 94  1  0
 44 95  1  0
 46 96  1  0
 48 97  1  0
 50 98  1  0
 51 99  1  0
 52100  1  0
 53101  1  0
 55102  1  0
 57103  1  0
 59104  1  0
 61105  1  0
 63106  1  0
 65107  1  0
 67108  1  0
 69109  1  0
 70110  1  0
M  END
