
     RDKit          3D

 86 97  0  0  0  0  0  0  0  0999 V2000
   12.6265    1.0557    2.9036 C   0  0  0  0  0  0  0  0  0  0  0  0
   11.9618    0.4613    3.9716 C   0  0  0  0  0  0  0  0  0  0  0  0
   10.6922   -0.0873    3.7839 C   0  0  0  0  0  0  0  0  0  0  0  0
   10.0714   -0.0479    2.5244 C   0  0  0  0  0  0  0  0  0  0  0  0
    8.7940   -0.5948    2.3188 C   0  0  0  0  0  0  0  0  0  0  0  0
    8.1741   -0.5553    1.0583 C   0  0  0  0  0  0  0  0  0  0  0  0
    6.8962   -1.1022    0.8532 C   0  0  0  0  0  0  0  0  0  0  0  0
    6.2767   -1.0646   -0.4068 C   0  0  0  0  0  0  0  0  0  0  0  0
    4.9984   -1.6119   -0.6115 C   0  0  0  0  0  0  0  0  0  0  0  0
    4.3795   -1.5722   -1.8707 C   0  0  0  0  0  0  0  0  0  0  0  0
    3.0408   -2.1501   -2.0663 C   0  0  0  0  0  0  0  0  0  0  0  0
    2.9523   -3.4933   -2.4746 C   0  0  0  0  0  0  0  0  0  0  0  0
    1.7174   -4.1006   -2.6735 C   0  0  0  0  0  0  0  0  0  0  0  0
    0.5490   -3.3733   -2.4672 C   0  0  0  0  0  0  0  0  0  0  0  0
    0.5969   -2.0316   -2.0601 C   0  0  0  0  0  0  0  0  0  0  0  0
   -0.5936   -1.3135   -1.8565 C   0  0  0  0  0  0  0  0  0  0  0  0
   -0.5847    0.0300   -1.4502 C   0  0  0  0  0  0  0  0  0  0  0  0
   -1.7773    0.7469   -1.2472 C   0  0  0  0  0  0  0  0  0  0  0  0
   -1.7882    2.1022   -0.8392 C   0  0  0  0  0  0  0  0  0  0  0  0
   -2.9825    2.8511   -0.6281 C   0  0  0  0  0  0  0  0  0  0  0  0
   -4.3203    2.2707   -0.8221 C   0  0  0  0  0  0  0  0  0  0  0  0
   -4.9996    1.6656    0.2468 C   0  0  0  0  0  0  0  0  0  0  0  0
   -6.2765    1.1028    0.0777 C   0  0  0  0  0  0  0  0  0  0  0  0
   -6.9555    0.4933    1.1457 C   0  0  0  0  0  0  0  0  0  0  0  0
   -8.2314   -0.0705    0.9771 C   0  0  0  0  0  0  0  0  0  0  0  0
   -8.9097   -0.6801    2.0462 C   0  0  0  0  0  0  0  0  0  0  0  0
  -10.1851   -1.2444    1.8783 C   0  0  0  0  0  0  0  0  0  0  0  0
  -10.8639   -1.8542    2.9466 C   0  0  0  0  0  0  0  0  0  0  0  0
  -12.1308   -2.4106    2.7636 C   0  0  0  0  0  0  0  0  0  0  0  0
  -12.7351   -2.3647    1.5112 C   0  0  0  0  0  0  0  0  0  0  0  0
  -12.0736   -1.7622    0.4400 C   0  0  0  0  0  0  0  0  0  0  0  0
  -10.7982   -1.1978    0.6083 C   0  0  0  0  0  0  0  0  0  0  0  0
  -10.1194   -0.5880   -0.4597 C   0  0  0  0  0  0  0  0  0  0  0  0
   -8.8435   -0.0238   -0.2909 C   0  0  0  0  0  0  0  0  0  0  0  0
   -8.1647    0.5860   -1.3596 C   0  0  0  0  0  0  0  0  0  0  0  0
   -6.8893    1.1497   -1.1913 C   0  0  0  0  0  0  0  0  0  0  0  0
   -6.2113    1.7577   -2.2588 C   0  0  0  0  0  0  0  0  0  0  0  0
   -4.9421    2.3120   -2.0756 C   0  0  0  0  0  0  0  0  0  0  0  0
   -2.8951    4.1945   -0.2200 C   0  0  0  0  0  0  0  0  0  0  0  0
   -1.6607    4.8028   -0.0204 C   0  0  0  0  0  0  0  0  0  0  0  0
   -0.4919    4.0760   -0.2265 C   0  0  0  0  0  0  0  0  0  0  0  0
   -0.5386    2.7339   -0.6333 C   0  0  0  0  0  0  0  0  0  0  0  0
    0.6522    2.0160   -0.8365 C   0  0  0  0  0  0  0  0  0  0  0  0
    0.6442    0.6721   -1.2423 C   0  0  0  0  0  0  0  0  0  0  0  0
    1.8367   -0.0453   -1.4452 C   0  0  0  0  0  0  0  0  0  0  0  0
    1.8470   -1.4005   -1.8542 C   0  0  0  0  0  0  0  0  0  0  0  0
    5.0635   -0.9760   -2.9365 C   0  0  0  0  0  0  0  0  0  0  0  0
    6.3343   -0.4272   -2.7484 C   0  0  0  0  0  0  0  0  0  0  0  0
    6.9522   -0.4644   -1.4892 C   0  0  0  0  0  0  0  0  0  0  0  0
    8.2291    0.0832   -1.2839 C   0  0  0  0  0  0  0  0  0  0  0  0
    8.8483    0.0452   -0.0232 C   0  0  0  0  0  0  0  0  0  0  0  0
   10.1258    0.5931    0.1816 C   0  0  0  0  0  0  0  0  0  0  0  0
   10.7459    0.5545    1.4412 C   0  0  0  0  0  0  0  0  0  0  0  0
   12.0229    1.1023    1.6461 C   0  0  0  0  0  0  0  0  0  0  0  0
   13.6151    1.4835    3.0474 H   0  0  0  0  0  0  0  0  0  0  0  0
   12.4300    0.4236    4.9516 H   0  0  0  0  0  0  0  0  0  0  0  0
   10.1894   -0.5476    4.6315 H   0  0  0  0  0  0  0  0  0  0  0  0
    8.2736   -1.0594    3.1544 H   0  0  0  0  0  0  0  0  0  0  0  0
    6.3742   -1.5656    1.6887 H   0  0  0  0  0  0  0  0  0  0  0  0
    4.4691   -2.0753    0.2200 H   0  0  0  0  0  0  0  0  0  0  0  0
    3.8598   -4.0723   -2.6376 H   0  0  0  0  0  0  0  0  0  0  0  0
    1.6653   -5.1394   -2.9881 H   0  0  0  0  0  0  0  0  0  0  0  0
   -0.4078   -3.8663   -2.6278 H   0  0  0  0  0  0  0  0  0  0  0  0
   -1.5495   -1.8100   -2.0176 H   0  0  0  0  0  0  0  0  0  0  0  0
   -2.7228    0.2320   -1.4121 H   0  0  0  0  0  0  0  0  0  0  0  0
   -4.5187    1.6309    1.2234 H   0  0  0  0  0  0  0  0  0  0  0  0
   -6.4816    0.4567    2.1252 H   0  0  0  0  0  0  0  0  0  0  0  0
   -8.4376   -0.7157    3.0264 H   0  0  0  0  0  0  0  0  0  0  0  0
  -10.4078   -1.9002    3.9331 H   0  0  0  0  0  0  0  0  0  0  0  0
  -12.6440   -2.8793    3.5992 H   0  0  0  0  0  0  0  0  0  0  0  0
  -13.7214   -2.7974    1.3662 H   0  0  0  0  0  0  0  0  0  0  0  0
  -12.5625   -1.7363   -0.5312 H   0  0  0  0  0  0  0  0  0  0  0  0
  -10.5929   -0.5524   -1.4392 H   0  0  0  0  0  0  0  0  0  0  0  0
   -8.6373    0.6223   -2.3396 H   0  0  0  0  0  0  0  0  0  0  0  0
   -6.6661    1.8046   -3.2458 H   0  0  0  0  0  0  0  0  0  0  0  0
   -4.4344    2.7741   -2.9200 H   0  0  0  0  0  0  0  0  0  0  0  0
   -3.8033    4.7722   -0.0569 H   0  0  0  0  0  0  0  0  0  0  0  0
   -1.6096    5.8416    0.2948 H   0  0  0  0  0  0  0  0  0  0  0  0
    0.4648    4.5690   -0.0658 H   0  0  0  0  0  0  0  0  0  0  0  0
    1.6077    2.5131   -0.6758 H   0  0  0  0  0  0  0  0  0  0  0  0
    2.7826    0.4689   -1.2795 H   0  0  0  0  0  0  0  0  0  0  0  0
    4.6045   -0.9323   -3.9221 H   0  0  0  0  0  0  0  0  0  0  0  0
    6.8383    0.0309   -3.5966 H   0  0  0  0  0  0  0  0  0  0  0  0
    8.7503    0.5467   -2.1196 H   0  0  0  0  0  0  0  0  0  0  0  0
   10.6470    1.0576   -0.6535 H   0  0  0  0  0  0  0  0  0  0  0  0
   12.5590    1.5713    0.8240 H   0  0  0  0  0  0  0  0  0  0  0  0
  1  2  4  0
  2  3  4  0
  3  4  4  0
  4  5  4  0
  5  6  4  0
  6  7  4  0
  7  8  4  0
  8  9  4  0
  9 10  4  0
 10 11  1  0
 11 12  4  0
 12 13  4  0
 13 14  4  0
 14 15  4  0
 15 16  4  0
 16 17  4  0
 17 18  4  0
 18 19  4  0
 19 20  4  0
 20 21  1  0
 21 22  4  0
 22 23  4  0
 23 24  4  0
 24 25  4  0
 25 26  4  0
 26 27  4  0
 27 28  4  0
 28 29  4  0
 29 30  4  0
 30 31  4  0
 31 32  4  0
 32 33  4  0
 33 34  4  0
 34 35  4  0
 35 36  4  0
 36 37  4  0
 37 38  4  0
 20 39  4  0
 39 40  4  0
 40 41  4  0
 41 42  4  0
 42 43  4  0
 43 44  4  0
 44 45  4  0
 45 46  4  0
 10 47  4  0
 47 48  4  0
 48 49  4  0
 49 50  4  0
 50 51  4  0
 51 52  4  0
 52 53  4  0
 53 54  4  0
 54  1  4  0
 53  4  4  0
 51  6  4  0
 49  8  4  0
 46 11  4  0
 46 15  4  0
 44 17  4  0
 42 19  4  0
 38 21  4  0
 36 23  4  0
 34 25  4  0
 32 27  4  0
  1 55  1  0
  2 56  1  0
  3 57  1  0
  5 58  1  0
  7 59  1  0
  9 60  1  0
 12 61  1  0
 13 62  1  0
 14 63  1  0
 16 64  1  0
 18 65  1  0
 22 66  1  0
 24 67  1  0
 26 68  1  0
 28 69  1  0
 29 70  1  0
 30 71  1  0
 31 72  1  0
 33 73  1  0
 35 74  1  0
 37 75  1  0
 38 76  1  0
 39 77  1  0
 40 78  1  0
 41 79  1  0
 43 80  1  0
 45 81  1  0
 47 82  1  0
 48 83  1  0
 50 84  1  0
 52 85  1  0
 54 86  1  0
M  END
