
     RDKit          3D

 86 97  0  0  0  0  0  0  0  0999 V2000
  -13.1688    0.2327   -1.6253 C   0  0  0  0  0  0  0  0  0  0  0  0
  -12.2673    1.0506   -0.9420 C   0  0  0  0  0  0  0  0  0  0  0  0
  -11.0031    0.5684   -0.5635 C   0  0  0  0  0  0  0  0  0  0  0  0
  -10.0844    1.3785    0.1245 C   0  0  0  0  0  0  0  0  0  0  0  0
   -8.8199    0.8955    0.5027 C   0  0  0  0  0  0  0  0  0  0  0  0
   -7.9012    1.7064    1.1908 C   0  0  0  0  0  0  0  0  0  0  0  0
   -6.6374    1.2240    1.5691 C   0  0  0  0  0  0  0  0  0  0  0  0
   -5.7204    2.0340    2.2562 C   0  0  0  0  0  0  0  0  0  0  0  0
   -4.4667    1.5399    2.6249 C   0  0  0  0  0  0  0  0  0  0  0  0
   -4.0989    0.2258    2.3136 C   0  0  0  0  0  0  0  0  0  0  0  0
   -2.7777   -0.2952    2.6982 C   0  0  0  0  0  0  0  0  0  0  0  0
   -2.6281   -0.8363    3.9881 C   0  0  0  0  0  0  0  0  0  0  0  0
   -1.4067   -1.3483    4.4118 C   0  0  0  0  0  0  0  0  0  0  0  0
   -0.3133   -1.3273    3.5511 C   0  0  0  0  0  0  0  0  0  0  0  0
   -0.4232   -0.7951    2.2576 C   0  0  0  0  0  0  0  0  0  0  0  0
    0.6922   -0.7820    1.4028 C   0  0  0  0  0  0  0  0  0  0  0  0
    0.6197   -0.2570    0.1030 C   0  0  0  0  0  0  0  0  0  0  0  0
    1.7365   -0.2460   -0.7515 C   0  0  0  0  0  0  0  0  0  0  0  0
    1.6839    0.2825   -2.0637 C   0  0  0  0  0  0  0  0  0  0  0  0
    2.8016    0.3076   -2.9487 C   0  0  0  0  0  0  0  0  0  0  0  0
    4.1237   -0.2114   -2.5638 C   0  0  0  0  0  0  0  0  0  0  0  0
    4.5147   -1.5070   -2.9213 C   0  0  0  0  0  0  0  0  0  0  0  0
    5.7694   -1.9988   -2.5524 C   0  0  0  0  0  0  0  0  0  0  0  0
    6.6640   -1.2053   -1.8181 C   0  0  0  0  0  0  0  0  0  0  0  0
    7.9282   -1.6856   -1.4383 C   0  0  0  0  0  0  0  0  0  0  0  0
    8.8229   -0.8915   -0.7007 C   0  0  0  0  0  0  0  0  0  0  0  0
   10.0874   -1.3721   -0.3200 C   0  0  0  0  0  0  0  0  0  0  0  0
   10.9814   -0.5784    0.4179 C   0  0  0  0  0  0  0  0  0  0  0  0
   12.2457   -1.0582    0.7986 C   0  0  0  0  0  0  0  0  0  0  0  0
   13.1228   -0.2574    1.5319 C   0  0  0  0  0  0  0  0  0  0  0  0
   12.7475    1.0326    1.8938 C   0  0  0  0  0  0  0  0  0  0  0  0
   11.4947    1.5236    1.5229 C   0  0  0  0  0  0  0  0  0  0  0  0
   10.6010    0.7298    0.7848 C   0  0  0  0  0  0  0  0  0  0  0  0
    9.3369    1.2094    0.4036 C   0  0  0  0  0  0  0  0  0  0  0  0
    8.4436    0.4151   -0.3350 C   0  0  0  0  0  0  0  0  0  0  0  0
    7.1800    0.8964   -0.7166 C   0  0  0  0  0  0  0  0  0  0  0  0
    6.2852    0.1029   -1.4533 C   0  0  0  0  0  0  0  0  0  0  0  0
    5.0203    0.5844   -1.8330 C   0  0  0  0  0  0  0  0  0  0  0  0
    2.6515    0.8481   -4.2389 C   0  0  0  0  0  0  0  0  0  0  0  0
    1.4300    1.3601   -4.6626 C   0  0  0  0  0  0  0  0  0  0  0  0
    0.3371    1.3400   -3.8014 C   0  0  0  0  0  0  0  0  0  0  0  0
    0.4471    0.8080   -2.5078 C   0  0  0  0  0  0  0  0  0  0  0  0
   -0.6683    0.7953   -1.6530 C   0  0  0  0  0  0  0  0  0  0  0  0
   -0.5967    0.2697   -0.3533 C   0  0  0  0  0  0  0  0  0  0  0  0
   -1.7138    0.2578    0.5009 C   0  0  0  0  0  0  0  0  0  0  0  0
   -1.6602   -0.2699    1.8134 C   0  0  0  0  0  0  0  0  0  0  0  0
   -5.0172   -0.5861    1.6291 C   0  0  0  0  0  0  0  0  0  0  0  0
   -6.2823   -0.1031    1.2514 C   0  0  0  0  0  0  0  0  0  0  0  0
   -7.2009   -0.9132    0.5633 C   0  0  0  0  0  0  0  0  0  0  0  0
   -8.4654   -0.4304    0.1851 C   0  0  0  0  0  0  0  0  0  0  0  0
   -9.3838   -1.2416   -0.5030 C   0  0  0  0  0  0  0  0  0  0  0  0
  -10.6479   -0.7596   -0.8815 C   0  0  0  0  0  0  0  0  0  0  0  0
  -11.5662   -1.5703   -1.5695 C   0  0  0  0  0  0  0  0  0  0  0  0
  -12.8185   -1.0768   -1.9388 C   0  0  0  0  0  0  0  0  0  0  0  0
  -14.1433    0.6194   -1.9118 H   0  0  0  0  0  0  0  0  0  0  0  0
  -12.5598    2.0714   -0.7063 H   0  0  0  0  0  0  0  0  0  0  0  0
  -10.3587    2.4029    0.3699 H   0  0  0  0  0  0  0  0  0  0  0  0
   -8.1748    2.7310    1.4363 H   0  0  0  0  0  0  0  0  0  0  0  0
   -5.9743    3.0605    2.5109 H   0  0  0  0  0  0  0  0  0  0  0  0
   -3.7726    2.1893    3.1550 H   0  0  0  0  0  0  0  0  0  0  0  0
   -3.4774   -0.8598    4.6691 H   0  0  0  0  0  0  0  0  0  0  0  0
   -1.3068   -1.7640    5.4108 H   0  0  0  0  0  0  0  0  0  0  0  0
    0.6341   -1.7329    3.9008 H   0  0  0  0  0  0  0  0  0  0  0  0
    1.6392   -1.1883    1.7557 H   0  0  0  0  0  0  0  0  0  0  0  0
    2.6720   -0.6632   -0.3816 H   0  0  0  0  0  0  0  0  0  0  0  0
    3.8380   -2.1440   -3.4876 H   0  0  0  0  0  0  0  0  0  0  0  0
    6.0415   -3.0110   -2.8434 H   0  0  0  0  0  0  0  0  0  0  0  0
    8.2211   -2.6951   -1.7215 H   0  0  0  0  0  0  0  0  0  0  0  0
   10.3821   -2.3811   -0.6028 H   0  0  0  0  0  0  0  0  0  0  0  0
   12.5572   -2.0639    0.5252 H   0  0  0  0  0  0  0  0  0  0  0  0
   14.0978   -0.6420    1.8195 H   0  0  0  0  0  0  0  0  0  0  0  0
   13.4288    1.6580    2.4648 H   0  0  0  0  0  0  0  0  0  0  0  0
   11.2196    2.5345    1.8153 H   0  0  0  0  0  0  0  0  0  0  0  0
    9.0437    2.2188    0.6865 H   0  0  0  0  0  0  0  0  0  0  0  0
    6.8872    1.9064   -0.4348 H   0  0  0  0  0  0  0  0  0  0  0  0
    4.7202    1.5937   -1.5542 H   0  0  0  0  0  0  0  0  0  0  0  0
    3.5010    0.8722   -4.9195 H   0  0  0  0  0  0  0  0  0  0  0  0
    1.3297    1.7756   -5.6617 H   0  0  0  0  0  0  0  0  0  0  0  0
   -0.6102    1.7458   -4.1510 H   0  0  0  0  0  0  0  0  0  0  0  0
   -1.6145    1.2029   -2.0060 H   0  0  0  0  0  0  0  0  0  0  0  0
   -2.6501    0.6730    0.1308 H   0  0  0  0  0  0  0  0  0  0  0  0
   -4.7347   -1.6094    1.3858 H   0  0  0  0  0  0  0  0  0  0  0  0
   -6.9267   -1.9378    0.3179 H   0  0  0  0  0  0  0  0  0  0  0  0
   -9.1103   -2.2661   -0.7488 H   0  0  0  0  0  0  0  0  0  0  0  0
  -11.3107   -2.5966   -1.8237 H   0  0  0  0  0  0  0  0  0  0  0  0
  -13.5187   -1.7154   -2.4708 H   0  0  0  0  0  0  0  0  0  0  0  0
  1  2  4  0
  2  3  4  0
  3  4  4  0
  4  5  4  0
  5  6  4  0
  6  7  4  0
  7  8  4  0
  8  9  4  0
  9 10  4  0
 10 11  1  0
 11 12  4  0
 12 13  4  0
 13 14  4  0
 14 15  4  0
 15 16  4  0
 16 17  4  0
 17 18  4  0
 18 19  4  0
 19 20  4  0
 20 21  1  0
 21 22  4  0
 22 23  4  0
 23 24  4  0
 24 25  4  0
 25 26  4  0
 26 27  4  0
 27 28  4  0
 28 29  4  0
 29 30  4  0
 30 31  4  0
 31 32  4  0
 32 33  4  0
 33 34  4  0
 34 35  4  0
 35 36  4  0
 36 37  4  0
 37 38  4  0
 20 39  4  0
 39 40  4  0
 40 41  4  0
 41 42  4  0
 42 43  4  0
 43 44  4  0
 44 45  4  0
 45 46  4  0
 10 47  4  0
 47 48  4  0
 48 49  4  0
 49 50  4  0
 50 51  4  0
 51 52  4  0
 52 53  4  0
 53 54  4  0
 54  1  4  0
 52  3  4  0
 50  5  4  0
 48  7  4  0
 46 11  4  0
 46 15  4  0
 44 17  4  0
 42 19  4  0
 38 21  4  0
 37 24  4  0
 35 26  4  0
 33 28  4  0
  1 55  1  0
  2 56  1  0
  4 57  1  0
  6 58  1  0
  8 59  1  0
  9 60  1  0
 12 61  1  0
 13 62  1  0
 14 63  1  0
 16 64  1  0
 18 65  1  0
 22 66  1  0
 23 67  1  0
 25 68  1  0
 27 69  1  0
 29 70  1  0
 30 71  1  0
 31 72  1  0
 32 73  1  0
 34 74  1  0
 36 75  1  0
 38 76  1  0
 39 77  1  0
 40 78  1  0
 41 79  1  0
 43 80  1  0
 45 81  1  0
 47 82  1  0
 49 83  1  0
 51 84  1  0
 53 85  1  0
 54 86  1  0
M  END
