
     RDKit          3D

 98111  0  0  0  0  0  0  0  0999 V2000
    4.0478   -4.2423    4.5683 C   0  0  0  0  0  0  0  0  0  0  0  0
    3.0757   -3.2671    4.7324 C   0  0  0  0  0  0  0  0  0  0  0  0
    3.1160   -2.1089    3.9528 C   0  0  0  0  0  0  0  0  0  0  0  0
    4.1286   -1.8884    2.9853 C   0  0  0  0  0  0  0  0  0  0  0  0
    5.1070   -2.8958    2.8342 C   0  0  0  0  0  0  0  0  0  0  0  0
    5.0562   -4.0571    3.6252 C   0  0  0  0  0  0  0  0  0  0  0  0
    6.1303   -2.7358    1.8922 C   0  0  0  0  0  0  0  0  0  0  0  0
    6.2182   -1.5990    1.0789 C   0  0  0  0  0  0  0  0  0  0  0  0
    7.2622   -1.4845    0.1434 C   0  0  0  0  0  0  0  0  0  0  0  0
    7.3846   -0.3657   -0.6941 C   0  0  0  0  0  0  0  0  0  0  0  0
    8.4284   -0.2548   -1.6289 C   0  0  0  0  0  0  0  0  0  0  0  0
    8.5450    0.8668   -2.4665 C   0  0  0  0  0  0  0  0  0  0  0  0
    9.5875    0.9799   -3.4013 C   0  0  0  0  0  0  0  0  0  0  0  0
    9.6884    2.1011   -4.2263 C   0  0  0  0  0  0  0  0  0  0  0  0
    8.7491    3.1228   -4.1277 C   0  0  0  0  0  0  0  0  0  0  0  0
    7.7074    3.0248   -3.2038 C   0  0  0  0  0  0  0  0  0  0  0  0
    7.5926    1.9029   -2.3663 C   0  0  0  0  0  0  0  0  0  0  0  0
    6.5509    1.7886   -1.4310 C   0  0  0  0  0  0  0  0  0  0  0  0
    6.4374    0.6656   -0.5933 C   0  0  0  0  0  0  0  0  0  0  0  0
    5.3965    0.5482    0.3450 C   0  0  0  0  0  0  0  0  0  0  0  0
    5.2578   -0.5739    1.2010 C   0  0  0  0  0  0  0  0  0  0  0  0
    4.2068   -0.7175    2.1644 C   0  0  0  0  0  0  0  0  0  0  0  0
    3.1938    0.3599    2.3180 C   0  0  0  0  0  0  0  0  0  0  0  0
    3.4457    1.3779    3.2574 C   0  0  0  0  0  0  0  0  0  0  0  0
    2.5400    2.4154    3.4458 C   0  0  0  0  0  0  0  0  0  0  0  0
    1.3671    2.4525    2.6974 C   0  0  0  0  0  0  0  0  0  0  0  0
    1.0816    1.4565    1.7510 C   0  0  0  0  0  0  0  0  0  0  0  0
   -0.1057    1.5134    1.0016 C   0  0  0  0  0  0  0  0  0  0  0  0
   -0.4184    0.5401    0.0395 C   0  0  0  0  0  0  0  0  0  0  0  0
   -1.6016    0.6040   -0.7177 C   0  0  0  0  0  0  0  0  0  0  0  0
   -1.9275   -0.3635   -1.6977 C   0  0  0  0  0  0  0  0  0  0  0  0
   -3.1152   -0.3180   -2.4857 C   0  0  0  0  0  0  0  0  0  0  0  0
   -4.1267    0.7626   -2.3426 C   0  0  0  0  0  0  0  0  0  0  0  0
   -5.2276    0.5920   -1.4411 C   0  0  0  0  0  0  0  0  0  0  0  0
   -5.4187   -0.5599   -0.6363 C   0  0  0  0  0  0  0  0  0  0  0  0
   -6.5108   -0.7050    0.2380 C   0  0  0  0  0  0  0  0  0  0  0  0
   -6.6776   -1.8589    1.0231 C   0  0  0  0  0  0  0  0  0  0  0  0
   -7.7706   -2.0012    1.8939 C   0  0  0  0  0  0  0  0  0  0  0  0
   -7.9383   -3.1542    2.6786 C   0  0  0  0  0  0  0  0  0  0  0  0
   -9.0305   -3.2800    3.5385 C   0  0  0  0  0  0  0  0  0  0  0  0
   -9.9682   -2.2557    3.6247 C   0  0  0  0  0  0  0  0  0  0  0  0
   -9.8151   -1.1038    2.8514 C   0  0  0  0  0  0  0  0  0  0  0  0
   -8.7212   -0.9624    1.9815 C   0  0  0  0  0  0  0  0  0  0  0  0
   -8.5518    0.1900    1.1964 C   0  0  0  0  0  0  0  0  0  0  0  0
   -7.4563    0.3289    0.3264 C   0  0  0  0  0  0  0  0  0  0  0  0
   -7.2812    1.4777   -0.4594 C   0  0  0  0  0  0  0  0  0  0  0  0
   -6.1878    1.6188   -1.3326 C   0  0  0  0  0  0  0  0  0  0  0  0
   -6.0522    2.7830   -2.0992 C   0  0  0  0  0  0  0  0  0  0  0  0
   -4.9824    2.9681   -2.9830 C   0  0  0  0  0  0  0  0  0  0  0  0
   -4.8889    4.1538   -3.7332 C   0  0  0  0  0  0  0  0  0  0  0  0
   -3.8347    4.3638   -4.6193 C   0  0  0  0  0  0  0  0  0  0  0  0
   -2.8583    3.3897   -4.7649 C   0  0  0  0  0  0  0  0  0  0  0  0
   -2.9413    2.2074   -4.0256 C   0  0  0  0  0  0  0  0  0  0  0  0
   -4.0017    1.9606   -3.1178 C   0  0  0  0  0  0  0  0  0  0  0  0
   -3.3538   -1.3252   -3.4405 C   0  0  0  0  0  0  0  0  0  0  0  0
   -2.4491   -2.3642   -3.6245 C   0  0  0  0  0  0  0  0  0  0  0  0
   -1.2890   -2.4128   -2.8576 C   0  0  0  0  0  0  0  0  0  0  0  0
   -1.0152   -1.4266   -1.8979 C   0  0  0  0  0  0  0  0  0  0  0  0
    0.1643   -1.4914   -1.1374 C   0  0  0  0  0  0  0  0  0  0  0  0
    0.4745   -0.5196   -0.1735 C   0  0  0  0  0  0  0  0  0  0  0  0
    1.6597   -0.5817    0.5799 C   0  0  0  0  0  0  0  0  0  0  0  0
    1.9937    0.3940    1.5485 C   0  0  0  0  0  0  0  0  0  0  0  0
    4.0231   -5.1461    5.1709 H   0  0  0  0  0  0  0  0  0  0  0  0
    2.2838   -3.4011    5.4646 H   0  0  0  0  0  0  0  0  0  0  0  0
    2.3330   -1.3694    4.1106 H   0  0  0  0  0  0  0  0  0  0  0  0
    5.8092   -4.8343    3.5106 H   0  0  0  0  0  0  0  0  0  0  0  0
    6.8790   -3.5203    1.7881 H   0  0  0  0  0  0  0  0  0  0  0  0
    7.9964   -2.2848    0.0635 H   0  0  0  0  0  0  0  0  0  0  0  0
    9.1621   -1.0549   -1.7064 H   0  0  0  0  0  0  0  0  0  0  0  0
   10.3312    0.1916   -3.4935 H   0  0  0  0  0  0  0  0  0  0  0  0
   10.5002    2.1753   -4.9452 H   0  0  0  0  0  0  0  0  0  0  0  0
    8.8253    3.9967   -4.7694 H   0  0  0  0  0  0  0  0  0  0  0  0
    6.9824    3.8334   -3.1418 H   0  0  0  0  0  0  0  0  0  0  0  0
    5.8148    2.5870   -1.3535 H   0  0  0  0  0  0  0  0  0  0  0  0
    4.6702    1.3581    0.4040 H   0  0  0  0  0  0  0  0  0  0  0  0
    4.3613    1.3577    3.8464 H   0  0  0  0  0  0  0  0  0  0  0  0
    2.7481    3.1950    4.1738 H   0  0  0  0  0  0  0  0  0  0  0  0
    0.6720    3.2743    2.8582 H   0  0  0  0  0  0  0  0  0  0  0  0
   -0.8013    2.3352    1.1655 H   0  0  0  0  0  0  0  0  0  0  0  0
   -2.2848    1.4331   -0.5390 H   0  0  0  0  0  0  0  0  0  0  0  0
   -4.6957   -1.3731   -0.6873 H   0  0  0  0  0  0  0  0  0  0  0  0
   -5.9439   -2.6601    0.9544 H   0  0  0  0  0  0  0  0  0  0  0  0
   -7.2157   -3.9656    2.6245 H   0  0  0  0  0  0  0  0  0  0  0  0
   -9.1479   -4.1778    4.1398 H   0  0  0  0  0  0  0  0  0  0  0  0
  -10.8196   -2.3517    4.2934 H   0  0  0  0  0  0  0  0  0  0  0  0
  -10.5591   -0.3145    2.9329 H   0  0  0  0  0  0  0  0  0  0  0  0
   -9.2851    0.9915    1.2633 H   0  0  0  0  0  0  0  0  0  0  0  0
   -8.0142    2.2801   -0.3893 H   0  0  0  0  0  0  0  0  0  0  0  0
   -6.8014    3.5684   -2.0060 H   0  0  0  0  0  0  0  0  0  0  0  0
   -5.6446    4.9303   -3.6319 H   0  0  0  0  0  0  0  0  0  0  0  0
   -3.7780    5.2856   -5.1920 H   0  0  0  0  0  0  0  0  0  0  0  0
   -2.0296    3.5430   -5.4510 H   0  0  0  0  0  0  0  0  0  0  0  0
   -2.1533    1.4696   -4.1672 H   0  0  0  0  0  0  0  0  0  0  0  0
   -4.2583   -1.2947   -4.0459 H   0  0  0  0  0  0  0  0  0  0  0  0
   -2.6467   -3.1348   -4.3647 H   0  0  0  0  0  0  0  0  0  0  0  0
   -0.5924   -3.2336   -3.0171 H   0  0  0  0  0  0  0  0  0  0  0  0
    0.8598   -2.3136   -1.3006 H   0  0  0  0  0  0  0  0  0  0  0  0
    2.3424   -1.4111    0.4004 H   0  0  0  0  0  0  0  0  0  0  0  0
  1  2  4  0
  2  3  4  0
  3  4  4  0
  4  5  4  0
  5  6  4  0
  5  7  4  0
  7  8  4  0
  8  9  4  0
  9 10  4  0
 10 11  4  0
 11 12  4  0
 12 13  4  0
 13 14  4  0
 14 15  4  0
 15 16  4  0
 16 17  4  0
 17 18  4  0
 18 19  4  0
 19 20  4  0
 20 21  4  0
 21 22  4  0
 22 23  1  0
 23 24  4  0
 24 25  4  0
 25 26  4  0
 26 27  4  0
 27 28  4  0
 28 29  4  0
 29 30  4  0
 30 31  4  0
 31 32  4  0
 32 33  1  0
 33 34  4  0
 34 35  4  0
 35 36  4  0
 36 37  4  0
 37 38  4  0
 38 39  4  0
 39 40  4  0
 40 41  4  0
 41 42  4  0
 42 43  4  0
 43 44  4  0
 44 45  4  0
 45 46  4  0
 46 47  4  0
 47 48  4  0
 48 49  4  0
 49 50  4  0
 50 51  4  0
 51 52  4  0
 52 53  4  0
 53 54  4  0
 32 55  4  0
 55 56  4  0
 56 57  4  0
 57 58  4  0
 58 59  4  0
 59 60  4  0
 60 61  4  0
 61 62  4  0
  6  1  4  0
 21  8  4  0
 62 23  4  0
 22  4  4  0
 62 27  4  0
 19 10  4  0
 60 29  4  0
 17 12  4  0
 58 31  4  0
 54 33  4  0
 47 34  4  0
 54 49  4  0
 45 36  4  0
 43 38  4  0
  1 63  1  0
  2 64  1  0
  3 65  1  0
  6 66  1  0
  7 67  1  0
  9 68  1  0
 11 69  1  0
 13 70  1  0
 14 71  1  0
 15 72  1  0
 16 73  1  0
 18 74  1  0
 20 75  1  0
 24 76  1  0
 25 77  1  0
 26 78  1  0
 28 79  1  0
 30 80  1  0
 35 81  1  0
 37 82  1  0
 39 83  1  0
 40 84  1  0
 41 85  1  0
 42 86  1  0
 44 87  1  0
 46 88  1  0
 48 89  1  0
 50 90  1  0
 51 91  1  0
 52 92  1  0
 53 93  1  0
 55 94  1  0
 56 95  1  0
 57 96  1  0
 59 97  1  0
 61 98  1  0
M  END
