
     RDKit          3D

 98111  0  0  0  0  0  0  0  0999 V2000
   15.5377    1.8424   -0.2040 C   0  0  0  0  0  0  0  0  0  0  0  0
   14.5631    1.4340    0.7078 C   0  0  0  0  0  0  0  0  0  0  0  0
   13.2943    1.0222    0.2673 C   0  0  0  0  0  0  0  0  0  0  0  0
   12.3027    0.6083    1.1721 C   0  0  0  0  0  0  0  0  0  0  0  0
   11.0338    0.1966    0.7307 C   0  0  0  0  0  0  0  0  0  0  0  0
   10.0417   -0.2173    1.6355 C   0  0  0  0  0  0  0  0  0  0  0  0
    8.7729   -0.6300    1.1949 C   0  0  0  0  0  0  0  0  0  0  0  0
    7.7811   -1.0444    2.0999 C   0  0  0  0  0  0  0  0  0  0  0  0
    6.5134   -1.4580    1.6585 C   0  0  0  0  0  0  0  0  0  0  0  0
    5.5232   -1.8727    2.5619 C   0  0  0  0  0  0  0  0  0  0  0  0
    4.2673   -2.2816    2.1068 C   0  0  0  0  0  0  0  0  0  0  0  0
    3.9701   -2.2831    0.7389 C   0  0  0  0  0  0  0  0  0  0  0  0
    2.6475   -2.7127    0.2583 C   0  0  0  0  0  0  0  0  0  0  0  0
    2.4646   -4.0728   -0.0512 C   0  0  0  0  0  0  0  0  0  0  0  0
    1.2386   -4.5438   -0.5085 C   0  0  0  0  0  0  0  0  0  0  0  0
    0.1744   -3.6606   -0.6643 C   0  0  0  0  0  0  0  0  0  0  0  0
    0.3184   -2.2970   -0.3668 C   0  0  0  0  0  0  0  0  0  0  0  0
   -0.7679   -1.4205   -0.5308 C   0  0  0  0  0  0  0  0  0  0  0  0
   -0.6609   -0.0507   -0.2428 C   0  0  0  0  0  0  0  0  0  0  0  0
   -1.7490    0.8252   -0.4068 C   0  0  0  0  0  0  0  0  0  0  0  0
   -1.6616    2.2081   -0.1166 C   0  0  0  0  0  0  0  0  0  0  0  0
   -2.7502    3.1165   -0.2697 C   0  0  0  0  0  0  0  0  0  0  0  0
   -4.0788    2.6863   -0.7357 C   0  0  0  0  0  0  0  0  0  0  0  0
   -4.4593    2.8621   -2.0714 C   0  0  0  0  0  0  0  0  0  0  0  0
   -5.7211    2.4550   -2.5123 C   0  0  0  0  0  0  0  0  0  0  0  0
   -6.6338    1.8614   -1.6271 C   0  0  0  0  0  0  0  0  0  0  0  0
   -7.9060    1.4460   -2.0546 C   0  0  0  0  0  0  0  0  0  0  0  0
   -8.8188    0.8496   -1.1680 C   0  0  0  0  0  0  0  0  0  0  0  0
  -10.0922    0.4347   -1.5944 C   0  0  0  0  0  0  0  0  0  0  0  0
  -11.0044   -0.1629   -0.7083 C   0  0  0  0  0  0  0  0  0  0  0  0
  -12.2775   -0.5769   -1.1356 C   0  0  0  0  0  0  0  0  0  0  0  0
  -13.1893   -1.1747   -0.2499 C   0  0  0  0  0  0  0  0  0  0  0  0
  -14.4620   -1.5889   -0.6764 C   0  0  0  0  0  0  0  0  0  0  0  0
  -15.3566   -2.1815    0.2162 C   0  0  0  0  0  0  0  0  0  0  0  0
  -14.9907   -2.3674    1.5456 C   0  0  0  0  0  0  0  0  0  0  0  0
  -13.7296   -1.9611    1.9845 C   0  0  0  0  0  0  0  0  0  0  0  0
  -12.8182   -1.3632    1.0983 C   0  0  0  0  0  0  0  0  0  0  0  0
  -11.5454   -0.9487    1.5245 C   0  0  0  0  0  0  0  0  0  0  0  0
  -10.6340   -0.3507    0.6376 C   0  0  0  0  0  0  0  0  0  0  0  0
   -9.3612    0.0648    1.0640 C   0  0  0  0  0  0  0  0  0  0  0  0
   -8.4494    0.6633    0.1782 C   0  0  0  0  0  0  0  0  0  0  0  0
   -7.1776    1.0803    0.6066 C   0  0  0  0  0  0  0  0  0  0  0  0
   -6.2654    1.6781   -0.2785 C   0  0  0  0  0  0  0  0  0  0  0  0
   -4.9938    2.0965    0.1511 C   0  0  0  0  0  0  0  0  0  0  0  0
   -2.5636    4.4774    0.0356 C   0  0  0  0  0  0  0  0  0  0  0  0
   -1.3356    4.9484    0.4874 C   0  0  0  0  0  0  0  0  0  0  0  0
   -0.2719    4.0647    0.6419 C   0  0  0  0  0  0  0  0  0  0  0  0
   -0.4179    2.7011    0.3462 C   0  0  0  0  0  0  0  0  0  0  0  0
    0.6689    1.8250    0.5078 C   0  0  0  0  0  0  0  0  0  0  0  0
    0.5619    0.4553    0.2202 C   0  0  0  0  0  0  0  0  0  0  0  0
    1.6500   -0.4204    0.3843 C   0  0  0  0  0  0  0  0  0  0  0  0
    1.5605   -1.8041    0.0995 C   0  0  0  0  0  0  0  0  0  0  0  0
    4.9612   -1.8705   -0.1654 C   0  0  0  0  0  0  0  0  0  0  0  0
    6.2295   -1.4568    0.2773 C   0  0  0  0  0  0  0  0  0  0  0  0
    7.2212   -1.0417   -0.6266 C   0  0  0  0  0  0  0  0  0  0  0  0
    8.4893   -0.6285   -0.1847 C   0  0  0  0  0  0  0  0  0  0  0  0
    9.4812   -0.2142   -1.0894 C   0  0  0  0  0  0  0  0  0  0  0  0
   10.7499    0.1984   -0.6489 C   0  0  0  0  0  0  0  0  0  0  0  0
   11.7410    0.6122   -1.5549 C   0  0  0  0  0  0  0  0  0  0  0  0
   13.0096    1.0242   -1.1147 C   0  0  0  0  0  0  0  0  0  0  0  0
   14.0008    1.4380   -2.0198 C   0  0  0  0  0  0  0  0  0  0  0  0
   15.2567    1.8445   -1.5666 C   0  0  0  0  0  0  0  0  0  0  0  0
   16.5150    2.1585    0.1511 H   0  0  0  0  0  0  0  0  0  0  0  0
   14.8018    1.4394    1.7689 H   0  0  0  0  0  0  0  0  0  0  0  0
   12.5238    0.6065    2.2379 H   0  0  0  0  0  0  0  0  0  0  0  0
   10.2616   -0.2188    2.7017 H   0  0  0  0  0  0  0  0  0  0  0  0
    7.9996   -1.0456    3.1663 H   0  0  0  0  0  0  0  0  0  0  0  0
    5.7210   -1.8812    3.6315 H   0  0  0  0  0  0  0  0  0  0  0  0
    3.5158   -2.5973    2.8278 H   0  0  0  0  0  0  0  0  0  0  0  0
    3.2904   -4.7723    0.0677 H   0  0  0  0  0  0  0  0  0  0  0  0
    1.1122   -5.5974   -0.7425 H   0  0  0  0  0  0  0  0  0  0  0  0
   -0.7774   -4.0481   -1.0225 H   0  0  0  0  0  0  0  0  0  0  0  0
   -1.7190   -1.8115   -0.8896 H   0  0  0  0  0  0  0  0  0  0  0  0
   -2.6892    0.4155   -0.7731 H   0  0  0  0  0  0  0  0  0  0  0  0
   -3.7681    3.3155   -2.7793 H   0  0  0  0  0  0  0  0  0  0  0  0
   -5.9844    2.6051   -3.5570 H   0  0  0  0  0  0  0  0  0  0  0  0
   -8.1905    1.5892   -3.0956 H   0  0  0  0  0  0  0  0  0  0  0  0
  -10.3788    0.5798   -2.6346 H   0  0  0  0  0  0  0  0  0  0  0  0
  -12.5647   -0.4314   -2.1755 H   0  0  0  0  0  0  0  0  0  0  0  0
  -14.7666   -1.4522   -1.7116 H   0  0  0  0  0  0  0  0  0  0  0  0
  -16.3381   -2.4971   -0.1278 H   0  0  0  0  0  0  0  0  0  0  0  0
  -15.6857   -2.8286    2.2424 H   0  0  0  0  0  0  0  0  0  0  0  0
  -13.4618   -2.1149    3.0274 H   0  0  0  0  0  0  0  0  0  0  0  0
  -11.2606   -1.0944    2.5649 H   0  0  0  0  0  0  0  0  0  0  0  0
   -9.0752   -0.0797    2.1044 H   0  0  0  0  0  0  0  0  0  0  0  0
   -6.8921    0.9372    1.6474 H   0  0  0  0  0  0  0  0  0  0  0  0
   -4.7036    1.9605    1.1921 H   0  0  0  0  0  0  0  0  0  0  0  0
   -3.3900    5.1773   -0.0767 H   0  0  0  0  0  0  0  0  0  0  0  0
   -1.2078    6.0021    0.7206 H   0  0  0  0  0  0  0  0  0  0  0  0
    0.6809    4.4521    0.9976 H   0  0  0  0  0  0  0  0  0  0  0  0
    1.6204    2.2163    0.8652 H   0  0  0  0  0  0  0  0  0  0  0  0
    2.5926   -0.0102    0.7442 H   0  0  0  0  0  0  0  0  0  0  0  0
    4.7345   -1.8705   -1.2307 H   0  0  0  0  0  0  0  0  0  0  0  0
    7.0023   -1.0410   -1.6931 H   0  0  0  0  0  0  0  0  0  0  0  0
    9.2618   -0.2133   -2.1557 H   0  0  0  0  0  0  0  0  0  0  0  0
   11.5224    0.6134   -2.6212 H   0  0  0  0  0  0  0  0  0  0  0  0
   13.8007    1.4468   -3.0889 H   0  0  0  0  0  0  0  0  0  0  0  0
   16.0139    2.1621   -2.2785 H   0  0  0  0  0  0  0  0  0  0  0  0
  1  2  4  0
  2  3  4  0
  3  4  4  0
  4  5  4  0
  5  6  4  0
  6  7  4  0
  7  8  4  0
  8  9  4  0
  9 10  4  0
 10 11  4  0
 11 12  4  0
 12 13  1  0
 13 14  4  0
 14 15  4  0
 15 16  4  0
 16 17  4  0
 17 18  4  0
 18 19  4  0
 19 20  4  0
 20 21  4  0
 21 22  4  0
 22 23  1  0
 23 24  4  0
 24 25  4  0
 25 26  4  0
 26 27  4  0
 27 28  4  0
 28 29  4  0
 29 30  4  0
 30 31  4  0
 31 32  4  0
 32 33  4  0
 33 34  4  0
 34 35  4  0
 35 36  4  0
 36 37  4  0
 37 38  4  0
 38 39  4  0
 39 40  4  0
 40 41  4  0
 41 42  4  0
 42 43  4  0
 43 44  4  0
 22 45  4  0
 45 46  4  0
 46 47  4  0
 47 48  4  0
 48 49  4  0
 49 50  4  0
 50 51  4  0
 51 52  4  0
 12 53  4  0
 53 54  4  0
 54 55  4  0
 55 56  4  0
 56 57  4  0
 57 58  4  0
 58 59  4  0
 59 60  4  0
 60 61  4  0
 61 62  4  0
 62  1  4  0
 60  3  4  0
 58  5  4  0
 56  7  4  0
 54  9  4  0
 52 13  4  0
 52 17  4  0
 50 19  4  0
 48 21  4  0
 44 23  4  0
 43 26  4  0
 41 28  4  0
 39 30  4  0
 37 32  4  0
  1 63  1  0
  2 64  1  0
  4 65  1  0
  6 66  1  0
  8 67  1  0
 10 68  1  0
 11 69  1  0
 14 70  1  0
 15 71  1  0
 16 72  1  0
 18 73  1  0
 20 74  1  0
 24 75  1  0
 25 76  1  0
 27 77  1  0
 29 78  1  0
 31 79  1  0
 33 80  1  0
 34 81  1  0
 35 82  1  0
 36 83  1  0
 38 84  1  0
 40 85  1  0
 42 86  1  0
 44 87  1  0
 45 88  1  0
 46 89  1  0
 47 90  1  0
 49 91  1  0
 51 92  1  0
 53 93  1  0
 55 94  1  0
 57 95  1  0
 59 96  1  0
 61 97  1  0
 62 98  1  0
M  END
