
     RDKit          3D

 98111  0  0  0  0  0  0  0  0999 V2000
   -2.2931    7.3378   -1.2090 C   0  0  0  0  0  0  0  0  0  0  0  0
   -1.8779    6.3753   -2.1234 C   0  0  0  0  0  0  0  0  0  0  0  0
   -1.8347    5.0316   -1.7477 C   0  0  0  0  0  0  0  0  0  0  0  0
   -2.2065    4.6331   -0.4522 C   0  0  0  0  0  0  0  0  0  0  0  0
   -2.1698    3.2828   -0.0553 C   0  0  0  0  0  0  0  0  0  0  0  0
   -2.5347    2.8490    1.2452 C   0  0  0  0  0  0  0  0  0  0  0  0
   -2.9497    3.8535    2.1534 C   0  0  0  0  0  0  0  0  0  0  0  0
   -2.9910    5.2031    1.7617 C   0  0  0  0  0  0  0  0  0  0  0  0
   -2.6247    5.6071    0.4710 C   0  0  0  0  0  0  0  0  0  0  0  0
   -2.6644    6.9568    0.0810 C   0  0  0  0  0  0  0  0  0  0  0  0
   -3.3221    3.5065    3.4542 C   0  0  0  0  0  0  0  0  0  0  0  0
   -3.2875    2.1813    3.8764 C   0  0  0  0  0  0  0  0  0  0  0  0
   -2.8809    1.1638    3.0098 C   0  0  0  0  0  0  0  0  0  0  0  0
   -2.8465   -0.1620    3.4735 C   0  0  0  0  0  0  0  0  0  0  0  0
   -2.4365   -1.2189    2.6511 C   0  0  0  0  0  0  0  0  0  0  0  0
   -2.3766   -2.5361    3.1289 C   0  0  0  0  0  0  0  0  0  0  0  0
   -1.9329   -3.5709    2.3039 C   0  0  0  0  0  0  0  0  0  0  0  0
   -1.5451   -3.3175    0.9792 C   0  0  0  0  0  0  0  0  0  0  0  0
   -1.1272   -4.4437    0.1122 C   0  0  0  0  0  0  0  0  0  0  0  0
   -2.1810   -5.1249   -0.6058 C   0  0  0  0  0  0  0  0  0  0  0  0
   -3.5370   -4.6977   -0.6517 C   0  0  0  0  0  0  0  0  0  0  0  0
   -4.5212   -5.3926   -1.3604 C   0  0  0  0  0  0  0  0  0  0  0  0
   -4.1853   -6.5475   -2.0469 C   0  0  0  0  0  0  0  0  0  0  0  0
   -2.8696   -7.0012   -2.0160 C   0  0  0  0  0  0  0  0  0  0  0  0
   -1.8747   -6.3044   -1.3041 C   0  0  0  0  0  0  0  0  0  0  0  0
   -0.5726   -6.7987   -1.2671 C   0  0  0  0  0  0  0  0  0  0  0  0
    0.4656   -6.1450   -0.5908 C   0  0  0  0  0  0  0  0  0  0  0  0
    1.7204   -6.7679   -0.6169 C   0  0  0  0  0  0  0  0  0  0  0  0
    2.8460   -6.2173   -0.0076 C   0  0  0  0  0  0  0  0  0  0  0  0
    4.0758   -6.9009   -0.0568 C   0  0  0  0  0  0  0  0  0  0  0  0
    5.2237   -6.3612    0.5164 C   0  0  0  0  0  0  0  0  0  0  0  0
    5.1549   -5.1270    1.1409 C   0  0  0  0  0  0  0  0  0  0  0  0
    3.9363   -4.4445    1.1923 C   0  0  0  0  0  0  0  0  0  0  0  0
    2.7408   -4.9695    0.6281 C   0  0  0  0  0  0  0  0  0  0  0  0
    1.4579   -4.3043    0.6540 C   0  0  0  0  0  0  0  0  0  0  0  0
    1.4474   -2.9167    1.1703 C   0  0  0  0  0  0  0  0  0  0  0  0
    1.2967   -2.6342    2.5327 C   0  0  0  0  0  0  0  0  0  0  0  0
    1.3126   -1.3124    2.9877 C   0  0  0  0  0  0  0  0  0  0  0  0
    1.5016   -0.2450    2.0936 C   0  0  0  0  0  0  0  0  0  0  0  0
    1.4852    1.0887    2.5216 C   0  0  0  0  0  0  0  0  0  0  0  0
    1.6819    2.1551    1.6264 C   0  0  0  0  0  0  0  0  0  0  0  0
    1.6438    3.4667    2.1051 C   0  0  0  0  0  0  0  0  0  0  0  0
    1.8415    4.5451    1.2483 C   0  0  0  0  0  0  0  0  0  0  0  0
    2.0909    4.3441   -0.1115 C   0  0  0  0  0  0  0  0  0  0  0  0
    2.2941    5.4569   -0.9460 C   0  0  0  0  0  0  0  0  0  0  0  0
    2.5570    5.3137   -2.3147 C   0  0  0  0  0  0  0  0  0  0  0  0
    2.7618    6.4280   -3.1462 C   0  0  0  0  0  0  0  0  0  0  0  0
    3.0265    6.2647   -4.5064 C   0  0  0  0  0  0  0  0  0  0  0  0
    3.0903    4.9863   -5.0508 C   0  0  0  0  0  0  0  0  0  0  0  0
    2.8884    3.8716   -4.2350 C   0  0  0  0  0  0  0  0  0  0  0  0
    2.6192    4.0209   -2.8632 C   0  0  0  0  0  0  0  0  0  0  0  0
    2.4113    2.9095   -2.0235 C   0  0  0  0  0  0  0  0  0  0  0  0
    2.1390    3.0292   -0.6350 C   0  0  0  0  0  0  0  0  0  0  0  0
    1.9186    1.9121    0.2513 C   0  0  0  0  0  0  0  0  0  0  0  0
    1.9164    0.5551   -0.1599 C   0  0  0  0  0  0  0  0  0  0  0  0
    1.7035   -0.5142    0.7307 C   0  0  0  0  0  0  0  0  0  0  0  0
    1.6765   -1.8466    0.2855 C   0  0  0  0  0  0  0  0  0  0  0  0
    0.2573   -4.9169    0.0847 C   0  0  0  0  0  0  0  0  0  0  0  0
   -1.6473   -2.0041    0.4935 C   0  0  0  0  0  0  0  0  0  0  0  0
   -2.0679   -0.9465    1.3228 C   0  0  0  0  0  0  0  0  0  0  0  0
   -2.1097    0.3833    0.8627 C   0  0  0  0  0  0  0  0  0  0  0  0
   -2.5035    1.4743    1.6810 C   0  0  0  0  0  0  0  0  0  0  0  0
   -2.3280    8.3850   -1.4976 H   0  0  0  0  0  0  0  0  0  0  0  0
   -1.5872    6.6679   -3.1288 H   0  0  0  0  0  0  0  0  0  0  0  0
   -1.5062    4.2928   -2.4754 H   0  0  0  0  0  0  0  0  0  0  0  0
   -1.8420    2.5559   -0.7930 H   0  0  0  0  0  0  0  0  0  0  0  0
   -3.3139    5.9575    2.4775 H   0  0  0  0  0  0  0  0  0  0  0  0
   -2.9856    7.7226    0.7834 H   0  0  0  0  0  0  0  0  0  0  0  0
   -3.6436    4.2692    4.1605 H   0  0  0  0  0  0  0  0  0  0  0  0
   -3.5826    1.9536    4.8986 H   0  0  0  0  0  0  0  0  0  0  0  0
   -3.1358   -0.3756    4.5010 H   0  0  0  0  0  0  0  0  0  0  0  0
   -2.6625   -2.7668    4.1522 H   0  0  0  0  0  0  0  0  0  0  0  0
   -1.8899   -4.5843    2.6977 H   0  0  0  0  0  0  0  0  0  0  0  0
   -3.8495   -3.7961   -0.1273 H   0  0  0  0  0  0  0  0  0  0  0  0
   -5.5439   -5.0252   -1.3701 H   0  0  0  0  0  0  0  0  0  0  0  0
   -4.9415   -7.0967   -2.6007 H   0  0  0  0  0  0  0  0  0  0  0  0
   -2.6236   -7.9147   -2.5538 H   0  0  0  0  0  0  0  0  0  0  0  0
   -0.3604   -7.7314   -1.7906 H   0  0  0  0  0  0  0  0  0  0  0  0
    1.8281   -7.7238   -1.1306 H   0  0  0  0  0  0  0  0  0  0  0  0
    4.1487   -7.8674   -0.5517 H   0  0  0  0  0  0  0  0  0  0  0  0
    6.1653   -6.9008    0.4696 H   0  0  0  0  0  0  0  0  0  0  0  0
    6.0421   -4.6878    1.5892 H   0  0  0  0  0  0  0  0  0  0  0  0
    3.9324   -3.4777    1.6927 H   0  0  0  0  0  0  0  0  0  0  0  0
    1.1436   -3.4423    3.2437 H   0  0  0  0  0  0  0  0  0  0  0  0
    1.1591   -1.1210    4.0470 H   0  0  0  0  0  0  0  0  0  0  0  0
    1.3037    1.3019    3.5737 H   0  0  0  0  0  0  0  0  0  0  0  0
    1.4570    3.6662    3.1583 H   0  0  0  0  0  0  0  0  0  0  0  0
    1.8023    5.5509    1.6615 H   0  0  0  0  0  0  0  0  0  0  0  0
    2.2495    6.4585   -0.5208 H   0  0  0  0  0  0  0  0  0  0  0  0
    2.7167    7.4347   -2.7369 H   0  0  0  0  0  0  0  0  0  0  0  0
    3.1830    7.1349   -5.1382 H   0  0  0  0  0  0  0  0  0  0  0  0
    3.2970    4.8543   -6.1095 H   0  0  0  0  0  0  0  0  0  0  0  0
    2.9434    2.8805   -4.6800 H   0  0  0  0  0  0  0  0  0  0  0  0
    2.4740    1.9247   -2.4786 H   0  0  0  0  0  0  0  0  0  0  0  0
    2.0790    0.3058   -1.2049 H   0  0  0  0  0  0  0  0  0  0  0  0
    1.8265   -2.0645   -0.7708 H   0  0  0  0  0  0  0  0  0  0  0  0
   -1.3672   -1.8009   -0.5384 H   0  0  0  0  0  0  0  0  0  0  0  0
   -1.7998    0.5632   -0.1630 H   0  0  0  0  0  0  0  0  0  0  0  0
  1  2  4  0
  2  3  4  0
  3  4  4  0
  4  5  4  0
  5  6  4  0
  6  7  4  0
  7  8  4  0
  8  9  4  0
  9 10  4  0
  7 11  4  0
 11 12  4  0
 12 13  4  0
 13 14  4  0
 14 15  4  0
 15 16  4  0
 16 17  4  0
 17 18  4  0
 18 19  1  0
 19 20  4  0
 20 21  4  0
 21 22  4  0
 22 23  4  0
 23 24  4  0
 24 25  4  0
 25 26  4  0
 26 27  4  0
 27 28  4  0
 28 29  4  0
 29 30  4  0
 30 31  4  0
 31 32  4  0
 32 33  4  0
 33 34  4  0
 34 35  4  0
 35 36  1  0
 36 37  4  0
 37 38  4  0
 38 39  4  0
 39 40  4  0
 40 41  4  0
 41 42  4  0
 42 43  4  0
 43 44  4  0
 44 45  4  0
 45 46  4  0
 46 47  4  0
 47 48  4  0
 48 49  4  0
 49 50  4  0
 50 51  4  0
 51 52  4  0
 52 53  4  0
 53 54  4  0
 54 55  4  0
 55 56  4  0
 56 57  4  0
 35 58  4  0
 18 59  4  0
 59 60  4  0
 60 61  4  0
 61 62  4  0
 10  1  4  0
 62 13  4  0
  9  4  4  0
 60 15  4  0
 62  6  4  0
 58 19  4  0
 25 20  4  0
 58 27  4  0
 34 29  4  0
 57 36  4  0
 56 39  4  0
 54 41  4  0
 53 44  4  0
 51 46  4  0
  1 63  1  0
  2 64  1  0
  3 65  1  0
  5 66  1  0
  8 67  1  0
 10 68  1  0
 11 69  1  0
 12 70  1  0
 14 71  1  0
 16 72  1  0
 17 73  1  0
 21 74  1  0
 22 75  1  0
 23 76  1  0
 24 77  1  0
 26 78  1  0
 28 79  1  0
 30 80  1  0
 31 81  1  0
 32 82  1  0
 33 83  1  0
 37 84  1  0
 38 85  1  0
 40 86  1  0
 42 87  1  0
 43 88  1  0
 45 89  1  0
 47 90  1  0
 48 91  1  0
 49 92  1  0
 50 93  1  0
 52 94  1  0
 55 95  1  0
 57 96  1  0
 59 97  1  0
 61 98  1  0
M  END
