
     RDKit          3D

 98111  0  0  0  0  0  0  0  0999 V2000
    2.9755   -1.1003    8.1374 C   0  0  0  0  0  0  0  0  0  0  0  0
    2.1321   -0.0147    7.9254 C   0  0  0  0  0  0  0  0  0  0  0  0
    1.8568    0.4090    6.6241 C   0  0  0  0  0  0  0  0  0  0  0  0
    2.4222   -0.2478    5.5172 C   0  0  0  0  0  0  0  0  0  0  0  0
    2.1572    0.1647    4.1972 C   0  0  0  0  0  0  0  0  0  0  0  0
    2.7131   -0.4770    3.0597 C   0  0  0  0  0  0  0  0  0  0  0  0
    3.5672   -1.5787    3.3105 C   0  0  0  0  0  0  0  0  0  0  0  0
    3.8348   -1.9951    4.6264 C   0  0  0  0  0  0  0  0  0  0  0  0
    3.2743   -1.3446    5.7335 C   0  0  0  0  0  0  0  0  0  0  0  0
    3.5437   -1.7621    7.0483 C   0  0  0  0  0  0  0  0  0  0  0  0
    4.1545   -2.2627    2.2436 C   0  0  0  0  0  0  0  0  0  0  0  0
    3.9117   -1.8775    0.9287 C   0  0  0  0  0  0  0  0  0  0  0  0
    3.0745   -0.7964    0.6415 C   0  0  0  0  0  0  0  0  0  0  0  0
    2.8512   -0.4344   -0.6981 C   0  0  0  0  0  0  0  0  0  0  0  0
    2.0278    0.6457   -1.0422 C   0  0  0  0  0  0  0  0  0  0  0  0
    1.8044    1.0039   -2.3833 C   0  0  0  0  0  0  0  0  0  0  0  0
    0.9720    2.0843   -2.7258 C   0  0  0  0  0  0  0  0  0  0  0  0
    0.8151    2.4804   -4.1435 C   0  0  0  0  0  0  0  0  0  0  0  0
    1.7954    3.4146   -4.6545 C   0  0  0  0  0  0  0  0  0  0  0  0
    2.8258    4.0149   -3.8779 C   0  0  0  0  0  0  0  0  0  0  0  0
    3.7506    4.9129   -4.4181 C   0  0  0  0  0  0  0  0  0  0  0  0
    3.6811    5.2435   -5.7609 C   0  0  0  0  0  0  0  0  0  0  0  0
    2.6899    4.6715   -6.5533 C   0  0  0  0  0  0  0  0  0  0  0  0
    1.7564    3.7661   -6.0132 C   0  0  0  0  0  0  0  0  0  0  0  0
    0.7861    3.1976   -6.8346 C   0  0  0  0  0  0  0  0  0  0  0  0
   -0.1756    2.2968   -6.3590 C   0  0  0  0  0  0  0  0  0  0  0  0
   -1.0791    1.7965   -7.3054 C   0  0  0  0  0  0  0  0  0  0  0  0
   -2.0946    0.9020   -6.9766 C   0  0  0  0  0  0  0  0  0  0  0  0
   -2.9638    0.4296   -7.9784 C   0  0  0  0  0  0  0  0  0  0  0  0
   -3.9972   -0.4532   -7.6784 C   0  0  0  0  0  0  0  0  0  0  0  0
   -4.1739   -0.8715   -6.3704 C   0  0  0  0  0  0  0  0  0  0  0  0
   -3.3134   -0.4047   -5.3728 C   0  0  0  0  0  0  0  0  0  0  0  0
   -2.2433    0.4939   -5.6414 C   0  0  0  0  0  0  0  0  0  0  0  0
   -1.3270    1.0063   -4.6456 C   0  0  0  0  0  0  0  0  0  0  0  0
   -1.5998    0.6124   -3.2448 C   0  0  0  0  0  0  0  0  0  0  0  0
   -2.4769    1.3723   -2.4576 C   0  0  0  0  0  0  0  0  0  0  0  0
   -2.7883    0.9793   -1.1540 C   0  0  0  0  0  0  0  0  0  0  0  0
   -2.2327   -0.1863   -0.6044 C   0  0  0  0  0  0  0  0  0  0  0  0
   -2.5169   -0.5866    0.7148 C   0  0  0  0  0  0  0  0  0  0  0  0
   -1.9678   -1.7553    1.3028 C   0  0  0  0  0  0  0  0  0  0  0  0
   -1.1038   -2.5260    0.4877 C   0  0  0  0  0  0  0  0  0  0  0  0
   -0.8213   -2.1327   -0.8318 C   0  0  0  0  0  0  0  0  0  0  0  0
   -1.3710   -0.9710   -1.3887 C   0  0  0  0  0  0  0  0  0  0  0  0
   -1.0744   -0.5725   -2.7050 C   0  0  0  0  0  0  0  0  0  0  0  0
   -0.5208   -3.6898    0.9947 C   0  0  0  0  0  0  0  0  0  0  0  0
   -0.7773   -4.1077    2.2968 C   0  0  0  0  0  0  0  0  0  0  0  0
   -1.6244   -3.3743    3.1309 C   0  0  0  0  0  0  0  0  0  0  0  0
   -1.8603   -3.8252    4.4413 C   0  0  0  0  0  0  0  0  0  0  0  0
   -2.7000   -3.1285    5.3203 C   0  0  0  0  0  0  0  0  0  0  0  0
   -2.9338   -3.5804    6.6303 C   0  0  0  0  0  0  0  0  0  0  0  0
   -3.7735   -2.8716    7.4903 C   0  0  0  0  0  0  0  0  0  0  0  0
   -4.3890   -1.7041    7.0511 C   0  0  0  0  0  0  0  0  0  0  0  0
   -4.1645   -1.2453    5.7520 C   0  0  0  0  0  0  0  0  0  0  0  0
   -3.3210   -1.9487    4.8749 C   0  0  0  0  0  0  0  0  0  0  0  0
   -3.0814   -1.5017    3.5614 C   0  0  0  0  0  0  0  0  0  0  0  0
   -2.2346   -2.1889    2.6529 C   0  0  0  0  0  0  0  0  0  0  0  0
   -0.2315    1.9125   -4.9950 C   0  0  0  0  0  0  0  0  0  0  0  0
    0.3906    2.8308   -1.6937 C   0  0  0  0  0  0  0  0  0  0  0  0
    0.6006    2.4792   -0.3575 C   0  0  0  0  0  0  0  0  0  0  0  0
    1.4138    1.3853   -0.0186 C   0  0  0  0  0  0  0  0  0  0  0  0
    1.6336    1.0135    1.3214 C   0  0  0  0  0  0  0  0  0  0  0  0
    2.4626   -0.0762    1.6961 C   0  0  0  0  0  0  0  0  0  0  0  0
    3.1920   -1.4334    9.1490 H   0  0  0  0  0  0  0  0  0  0  0  0
    1.6875    0.5033    8.7710 H   0  0  0  0  0  0  0  0  0  0  0  0
    1.1947    1.2597    6.4790 H   0  0  0  0  0  0  0  0  0  0  0  0
    1.4934    1.0148    4.0653 H   0  0  0  0  0  0  0  0  0  0  0  0
    4.4949   -2.8449    4.7938 H   0  0  0  0  0  0  0  0  0  0  0  0
    4.2008   -2.6091    7.2322 H   0  0  0  0  0  0  0  0  0  0  0  0
    4.8136   -3.1096    2.4243 H   0  0  0  0  0  0  0  0  0  0  0  0
    4.3905   -2.4359    0.1269 H   0  0  0  0  0  0  0  0  0  0  0  0
    3.3299   -1.0048   -1.4924 H   0  0  0  0  0  0  0  0  0  0  0  0
    2.2841    0.4379   -3.1802 H   0  0  0  0  0  0  0  0  0  0  0  0
    2.9222    3.7861   -2.8176 H   0  0  0  0  0  0  0  0  0  0  0  0
    4.5192    5.3469   -3.7841 H   0  0  0  0  0  0  0  0  0  0  0  0
    4.3943    5.9398   -6.1928 H   0  0  0  0  0  0  0  0  0  0  0  0
    2.6514    4.9378   -7.6078 H   0  0  0  0  0  0  0  0  0  0  0  0
    0.7812    3.4712   -7.8903 H   0  0  0  0  0  0  0  0  0  0  0  0
   -0.9892    2.1135   -8.3450 H   0  0  0  0  0  0  0  0  0  0  0  0
   -2.8408    0.7523   -9.0104 H   0  0  0  0  0  0  0  0  0  0  0  0
   -4.6599   -0.8082   -8.4625 H   0  0  0  0  0  0  0  0  0  0  0  0
   -4.9765   -1.5587   -6.1164 H   0  0  0  0  0  0  0  0  0  0  0  0
   -3.4932   -0.7619   -4.3602 H   0  0  0  0  0  0  0  0  0  0  0  0
   -2.9220    2.2791   -2.8614 H   0  0  0  0  0  0  0  0  0  0  0  0
   -3.4656    1.5970   -0.5693 H   0  0  0  0  0  0  0  0  0  0  0  0
   -3.1853    0.0451    1.2927 H   0  0  0  0  0  0  0  0  0  0  0  0
   -0.1487   -2.7382   -1.4370 H   0  0  0  0  0  0  0  0  0  0  0  0
   -0.4137   -1.1825   -3.3181 H   0  0  0  0  0  0  0  0  0  0  0  0
    0.1465   -4.2886    0.3783 H   0  0  0  0  0  0  0  0  0  0  0  0
   -0.3023   -5.0195    2.6531 H   0  0  0  0  0  0  0  0  0  0  0  0
   -1.3792   -4.7392    4.7862 H   0  0  0  0  0  0  0  0  0  0  0  0
   -2.4606   -4.4912    6.9902 H   0  0  0  0  0  0  0  0  0  0  0  0
   -3.9455   -3.2317    8.5011 H   0  0  0  0  0  0  0  0  0  0  0  0
   -5.0436   -1.1492    7.7179 H   0  0  0  0  0  0  0  0  0  0  0  0
   -4.6548   -0.3302    5.4275 H   0  0  0  0  0  0  0  0  0  0  0  0
   -3.5771   -0.5866    3.2495 H   0  0  0  0  0  0  0  0  0  0  0  0
   -0.2363    3.6878   -1.9282 H   0  0  0  0  0  0  0  0  0  0  0  0
    0.1189    3.0676    0.4194 H   0  0  0  0  0  0  0  0  0  0  0  0
    1.1377    1.6022    2.0879 H   0  0  0  0  0  0  0  0  0  0  0  0
  1  2  4  0
  2  3  4  0
  3  4  4  0
  4  5  4  0
  5  6  4  0
  6  7  4  0
  7  8  4  0
  8  9  4  0
  9 10  4  0
  7 11  4  0
 11 12  4  0
 12 13  4  0
 13 14  4  0
 14 15  4  0
 15 16  4  0
 16 17  4  0
 17 18  1  0
 18 19  4  0
 19 20  4  0
 20 21  4  0
 21 22  4  0
 22 23  4  0
 23 24  4  0
 24 25  4  0
 25 26  4  0
 26 27  4  0
 27 28  4  0
 28 29  4  0
 29 30  4  0
 30 31  4  0
 31 32  4  0
 32 33  4  0
 33 34  4  0
 34 35  1  0
 35 36  4  0
 36 37  4  0
 37 38  4  0
 38 39  4  0
 39 40  4  0
 40 41  4  0
 41 42  4  0
 42 43  4  0
 43 44  4  0
 41 45  4  0
 45 46  4  0
 46 47  4  0
 47 48  4  0
 48 49  4  0
 49 50  4  0
 50 51  4  0
 51 52  4  0
 52 53  4  0
 53 54  4  0
 54 55  4  0
 55 56  4  0
 34 57  4  0
 17 58  4  0
 58 59  4  0
 59 60  4  0
 60 61  4  0
 61 62  4  0
 10  1  4  0
 62 13  4  0
  9  4  4  0
 60 15  4  0
 62  6  4  0
 57 18  4  0
 24 19  4  0
 57 26  4  0
 33 28  4  0
 44 35  4  0
 56 47  4  0
 43 38  4  0
 54 49  4  0
 56 40  4  0
  1 63  1  0
  2 64  1  0
  3 65  1  0
  5 66  1  0
  8 67  1  0
 10 68  1  0
 11 69  1  0
 12 70  1  0
 14 71  1  0
 16 72  1  0
 20 73  1  0
 21 74  1  0
 22 75  1  0
 23 76  1  0
 25 77  1  0
 27 78  1  0
 29 79  1  0
 30 80  1  0
 31 81  1  0
 32 82  1  0
 36 83  1  0
 37 84  1  0
 39 85  1  0
 42 86  1  0
 44 87  1  0
 45 88  1  0
 46 89  1  0
 48 90  1  0
 50 91  1  0
 51 92  1  0
 52 93  1  0
 53 94  1  0
 55 95  1  0
 58 96  1  0
 59 97  1  0
 61 98  1  0
M  END
