
     RDKit          3D

 98111  0  0  0  0  0  0  0  0999 V2000
   -1.9695    5.4356   -2.8438 C   0  0  0  0  0  0  0  0  0  0  0  0
   -1.8873    4.2763   -3.6079 C   0  0  0  0  0  0  0  0  0  0  0  0
   -1.8169    3.0332   -2.9772 C   0  0  0  0  0  0  0  0  0  0  0  0
   -1.8280    2.9333   -1.5742 C   0  0  0  0  0  0  0  0  0  0  0  0
   -1.7486    1.6871   -0.9163 C   0  0  0  0  0  0  0  0  0  0  0  0
   -1.7630    1.5075    0.4953 C   0  0  0  0  0  0  0  0  0  0  0  0
   -1.8696    2.7260    1.2212 C   0  0  0  0  0  0  0  0  0  0  0  0
   -1.9314    3.9794    0.5830 C   0  0  0  0  0  0  0  0  0  0  0  0
   -1.9152    4.1006   -0.8086 C   0  0  0  0  0  0  0  0  0  0  0  0
   -1.9838    5.3495   -1.4513 C   0  0  0  0  0  0  0  0  0  0  0  0
   -1.9249    2.7130    2.6073 C   0  0  0  0  0  0  0  0  0  0  0  0
   -1.9167    1.5151    3.3001 C   0  0  0  0  0  0  0  0  0  0  0  0
   -1.8271    0.2910    2.6366 C   0  0  0  0  0  0  0  0  0  0  0  0
   -1.8850   -0.8502    3.4451 C   0  0  0  0  0  0  0  0  0  0  0  0
   -1.8494   -2.1397    2.9241 C   0  0  0  0  0  0  0  0  0  0  0  0
   -1.9820   -3.2455    3.7850 C   0  0  0  0  0  0  0  0  0  0  0  0
   -1.9764   -4.5462    3.2917 C   0  0  0  0  0  0  0  0  0  0  0  0
   -1.8350   -4.7537    1.9303 C   0  0  0  0  0  0  0  0  0  0  0  0
   -1.6893   -3.6585    1.0742 C   0  0  0  0  0  0  0  0  0  0  0  0
   -1.6852   -2.3157    1.5411 C   0  0  0  0  0  0  0  0  0  0  0  0
   -1.5456   -1.1478    0.6951 C   0  0  0  0  0  0  0  0  0  0  0  0
   -1.3476   -1.3955   -0.7675 C   0  0  0  0  0  0  0  0  0  0  0  0
   -2.5572   -1.5958   -1.5463 C   0  0  0  0  0  0  0  0  0  0  0  0
   -3.8746   -1.6250   -1.0100 C   0  0  0  0  0  0  0  0  0  0  0  0
   -5.0072   -1.8200   -1.8045 C   0  0  0  0  0  0  0  0  0  0  0  0
   -4.8646   -1.9857   -3.1716 C   0  0  0  0  0  0  0  0  0  0  0  0
   -3.5922   -1.9483   -3.7338 C   0  0  0  0  0  0  0  0  0  0  0  0
   -2.4490   -1.7523   -2.9365 C   0  0  0  0  0  0  0  0  0  0  0  0
   -1.1914   -1.6885   -3.5317 C   0  0  0  0  0  0  0  0  0  0  0  0
   -0.0095   -1.5134   -2.7992 C   0  0  0  0  0  0  0  0  0  0  0  0
    1.1738   -1.4622   -3.5482 C   0  0  0  0  0  0  0  0  0  0  0  0
    2.4332   -1.3381   -2.9672 C   0  0  0  0  0  0  0  0  0  0  0  0
    3.5800   -1.2859   -3.7818 C   0  0  0  0  0  0  0  0  0  0  0  0
    4.8530   -1.1895   -3.2280 C   0  0  0  0  0  0  0  0  0  0  0  0
    4.9928   -1.1504   -1.8512 C   0  0  0  0  0  0  0  0  0  0  0  0
    3.8568   -1.2018   -1.0399 C   0  0  0  0  0  0  0  0  0  0  0  0
    2.5393   -1.2885   -1.5697 C   0  0  0  0  0  0  0  0  0  0  0  0
    1.3264   -1.3299   -0.7724 C   0  0  0  0  0  0  0  0  0  0  0  0
    1.5242   -1.4524    0.7053 C   0  0  0  0  0  0  0  0  0  0  0  0
    1.6951   -0.2876    1.5738 C   0  0  0  0  0  0  0  0  0  0  0  0
    1.8468   -0.5961    2.9546 C   0  0  0  0  0  0  0  0  0  0  0  0
    1.8984   -1.9124    3.4285 C   0  0  0  0  0  0  0  0  0  0  0  0
    1.8390   -3.0146    2.5826 C   0  0  0  0  0  0  0  0  0  0  0  0
    1.9673   -4.3127    3.1134 C   0  0  0  0  0  0  0  0  0  0  0  0
    1.9374   -5.4342    2.2902 C   0  0  0  0  0  0  0  0  0  0  0  0
    1.7752   -5.2683    0.9255 C   0  0  0  0  0  0  0  0  0  0  0  0
    1.6349   -3.9817    0.3975 C   0  0  0  0  0  0  0  0  0  0  0  0
    1.6570   -2.8098    1.2064 C   0  0  0  0  0  0  0  0  0  0  0  0
    1.9748    0.4027    3.9187 C   0  0  0  0  0  0  0  0  0  0  0  0
    2.0052    1.7407    3.5695 C   0  0  0  0  0  0  0  0  0  0  0  0
    1.9212    2.1244    2.2389 C   0  0  0  0  0  0  0  0  0  0  0  0
    2.0087    3.4998    1.9577 C   0  0  0  0  0  0  0  0  0  0  0  0
    1.9638    3.9892    0.6509 C   0  0  0  0  0  0  0  0  0  0  0  0
    2.0617    5.3629    0.3666 C   0  0  0  0  0  0  0  0  0  0  0  0
    2.0135    5.8221   -0.9495 C   0  0  0  0  0  0  0  0  0  0  0  0
    1.8705    4.9141   -1.9930 C   0  0  0  0  0  0  0  0  0  0  0  0
    1.7729    3.5491   -1.7180 C   0  0  0  0  0  0  0  0  0  0  0  0
    1.8146    3.0726   -0.3961 C   0  0  0  0  0  0  0  0  0  0  0  0
    1.7043    1.6972   -0.0952 C   0  0  0  0  0  0  0  0  0  0  0  0
    1.7622    1.1488    1.2165 C   0  0  0  0  0  0  0  0  0  0  0  0
   -0.0104   -1.4049   -1.3848 C   0  0  0  0  0  0  0  0  0  0  0  0
   -1.6996    0.2140    1.2223 C   0  0  0  0  0  0  0  0  0  0  0  0
   -2.0217    6.4066   -3.3280 H   0  0  0  0  0  0  0  0  0  0  0  0
   -1.8762    4.3362   -4.6924 H   0  0  0  0  0  0  0  0  0  0  0  0
   -1.7512    2.1343   -3.5864 H   0  0  0  0  0  0  0  0  0  0  0  0
   -1.6772    0.8342   -1.5710 H   0  0  0  0  0  0  0  0  0  0  0  0
   -1.9976    4.8850    1.1835 H   0  0  0  0  0  0  0  0  0  0  0  0
   -2.0446    6.2635   -0.8660 H   0  0  0  0  0  0  0  0  0  0  0  0
   -1.9943    3.6398    3.1722 H   0  0  0  0  0  0  0  0  0  0  0  0
   -1.9870    1.5570    4.3853 H   0  0  0  0  0  0  0  0  0  0  0  0
   -1.9895   -0.7312    4.5231 H   0  0  0  0  0  0  0  0  0  0  0  0
   -2.0977   -3.0970    4.8563 H   0  0  0  0  0  0  0  0  0  0  0  0
   -2.0796   -5.3897    3.9674 H   0  0  0  0  0  0  0  0  0  0  0  0
   -1.8215   -5.7616    1.5260 H   0  0  0  0  0  0  0  0  0  0  0  0
   -1.5671   -3.8717    0.0143 H   0  0  0  0  0  0  0  0  0  0  0  0
   -4.0379   -1.4919    0.0582 H   0  0  0  0  0  0  0  0  0  0  0  0
   -5.9928   -1.8378   -1.3474 H   0  0  0  0  0  0  0  0  0  0  0  0
   -5.7374   -2.1374   -3.7994 H   0  0  0  0  0  0  0  0  0  0  0  0
   -3.4973   -2.0704   -4.8106 H   0  0  0  0  0  0  0  0  0  0  0  0
   -1.1333   -1.7874   -4.6165 H   0  0  0  0  0  0  0  0  0  0  0  0
    1.1167   -1.5279   -4.6355 H   0  0  0  0  0  0  0  0  0  0  0  0
    3.4871   -1.3213   -4.8650 H   0  0  0  0  0  0  0  0  0  0  0  0
    5.7288   -1.1469   -3.8687 H   0  0  0  0  0  0  0  0  0  0  0  0
    5.9784   -1.0757   -1.3997 H   0  0  0  0  0  0  0  0  0  0  0  0
    4.0154   -1.1585    0.0363 H   0  0  0  0  0  0  0  0  0  0  0  0
    2.0193   -2.0892    4.4970 H   0  0  0  0  0  0  0  0  0  0  0  0
    2.0976   -4.4578    4.1837 H   0  0  0  0  0  0  0  0  0  0  0  0
    2.0398   -6.4281    2.7146 H   0  0  0  0  0  0  0  0  0  0  0  0
    1.7504   -6.1303    0.2654 H   0  0  0  0  0  0  0  0  0  0  0  0
    1.5046   -3.9041   -0.6799 H   0  0  0  0  0  0  0  0  0  0  0  0
    2.0698    0.1507    4.9731 H   0  0  0  0  0  0  0  0  0  0  0  0
    2.1166    2.4799    4.3591 H   0  0  0  0  0  0  0  0  0  0  0  0
    2.1240    4.2078    2.7761 H   0  0  0  0  0  0  0  0  0  0  0  0
    2.1741    6.0840    1.1723 H   0  0  0  0  0  0  0  0  0  0  0  0
    2.0828    6.8856   -1.1578 H   0  0  0  0  0  0  0  0  0  0  0  0
    1.8217    5.2640   -3.0200 H   0  0  0  0  0  0  0  0  0  0  0  0
    1.6482    2.8529   -2.5445 H   0  0  0  0  0  0  0  0  0  0  0  0
    1.5580    1.0519   -0.9487 H   0  0  0  0  0  0  0  0  0  0  0  0
  1  2  4  0
  2  3  4  0
  3  4  4  0
  4  5  4  0
  5  6  4  0
  6  7  4  0
  7  8  4  0
  8  9  4  0
  9 10  4  0
  7 11  4  0
 11 12  4  0
 12 13  4  0
 13 14  4  0
 14 15  4  0
 15 16  4  0
 16 17  4  0
 17 18  4  0
 18 19  4  0
 19 20  4  0
 20 21  4  0
 21 22  1  0
 22 23  4  0
 23 24  4  0
 24 25  4  0
 25 26  4  0
 26 27  4  0
 27 28  4  0
 28 29  4  0
 29 30  4  0
 30 31  4  0
 31 32  4  0
 32 33  4  0
 33 34  4  0
 34 35  4  0
 35 36  4  0
 36 37  4  0
 37 38  4  0
 38 39  1  0
 39 40  4  0
 40 41  4  0
 41 42  4  0
 42 43  4  0
 43 44  4  0
 44 45  4  0
 45 46  4  0
 46 47  4  0
 47 48  4  0
 41 49  4  0
 49 50  4  0
 50 51  4  0
 51 52  4  0
 52 53  4  0
 53 54  4  0
 54 55  4  0
 55 56  4  0
 56 57  4  0
 57 58  4  0
 58 59  4  0
 59 60  4  0
 38 61  4  0
 21 62  4  0
 10  1  4  0
 62 13  4  0
  9  4  4  0
 20 15  4  0
 61 22  4  0
 62  6  4  0
 28 23  4  0
 61 30  4  0
 37 32  4  0
 48 39  4  0
 60 51  4  0
 60 40  4  0
 48 43  4  0
 58 53  4  0
  1 63  1  0
  2 64  1  0
  3 65  1  0
  5 66  1  0
  8 67  1  0
 10 68  1  0
 11 69  1  0
 12 70  1  0
 14 71  1  0
 16 72  1  0
 17 73  1  0
 18 74  1  0
 19 75  1  0
 24 76  1  0
 25 77  1  0
 26 78  1  0
 27 79  1  0
 29 80  1  0
 31 81  1  0
 33 82  1  0
 34 83  1  0
 35 84  1  0
 36 85  1  0
 42 86  1  0
 44 87  1  0
 45 88  1  0
 46 89  1  0
 47 90  1  0
 49 91  1  0
 50 92  1  0
 52 93  1  0
 54 94  1  0
 55 95  1  0
 56 96  1  0
 57 97  1  0
 59 98  1  0
M  END
