
     RDKit          3D

 90103  0  0  0  0  0  0  0  0999 V2000
    7.1350    2.5498   -2.1726 C   0  0  0  0  0  0  0  0  0  0  0  0
    6.9297    3.2975   -1.0166 C   0  0  0  0  0  0  0  0  0  0  0  0
    5.8718    2.9928   -0.1471 C   0  0  0  0  0  0  0  0  0  0  0  0
    4.9987    1.9154   -0.4407 C   0  0  0  0  0  0  0  0  0  0  0  0
    5.2192    1.1683   -1.6136 C   0  0  0  0  0  0  0  0  0  0  0  0
    6.2836    1.4898   -2.4699 C   0  0  0  0  0  0  0  0  0  0  0  0
    4.3642    0.1134   -1.9010 C   0  0  0  0  0  0  0  0  0  0  0  0
    3.3035   -0.1964   -1.0420 C   0  0  0  0  0  0  0  0  0  0  0  0
    3.0190    0.5121    0.1524 C   0  0  0  0  0  0  0  0  0  0  0  0
    3.9136    1.5887    0.4297 C   0  0  0  0  0  0  0  0  0  0  0  0
    3.7426    2.3722    1.5868 C   0  0  0  0  0  0  0  0  0  0  0  0
    2.6980    2.0902    2.4598 C   0  0  0  0  0  0  0  0  0  0  0  0
    1.7955    1.0522    2.2243 C   0  0  0  0  0  0  0  0  0  0  0  0
    0.7861    0.8750    3.1838 C   0  0  0  0  0  0  0  0  0  0  0  0
   -0.1623   -0.1234    3.0615 C   0  0  0  0  0  0  0  0  0  0  0  0
   -0.1126   -0.9553    1.9606 C   0  0  0  0  0  0  0  0  0  0  0  0
    0.8726   -0.7985    0.9536 C   0  0  0  0  0  0  0  0  0  0  0  0
    0.8075   -1.8221   -0.1239 C   0  0  0  0  0  0  0  0  0  0  0  0
    1.5542   -3.0416    0.1147 C   0  0  0  0  0  0  0  0  0  0  0  0
    2.3726   -3.2814    1.2532 C   0  0  0  0  0  0  0  0  0  0  0  0
    3.0796   -4.4731    1.4350 C   0  0  0  0  0  0  0  0  0  0  0  0
    2.9933   -5.4734    0.4815 C   0  0  0  0  0  0  0  0  0  0  0  0
    2.2012   -5.2745   -0.6455 C   0  0  0  0  0  0  0  0  0  0  0  0
    1.4877   -4.0752   -0.8324 C   0  0  0  0  0  0  0  0  0  0  0  0
    0.7005   -3.9060   -1.9689 C   0  0  0  0  0  0  0  0  0  0  0  0
   -0.0346   -2.7394   -2.2173 C   0  0  0  0  0  0  0  0  0  0  0  0
   -0.7850   -2.7221   -3.4005 C   0  0  0  0  0  0  0  0  0  0  0  0
   -1.5596   -1.6311   -3.7873 C   0  0  0  0  0  0  0  0  0  0  0  0
   -2.2900   -1.6807   -4.9900 C   0  0  0  0  0  0  0  0  0  0  0  0
   -3.0692   -0.6046   -5.4047 C   0  0  0  0  0  0  0  0  0  0  0  0
   -3.1250    0.5347   -4.6197 C   0  0  0  0  0  0  0  0  0  0  0  0
   -2.4012    0.5879   -3.4255 C   0  0  0  0  0  0  0  0  0  0  0  0
   -1.5960   -0.4919   -2.9682 C   0  0  0  0  0  0  0  0  0  0  0  0
   -0.8332   -0.4892   -1.7356 C   0  0  0  0  0  0  0  0  0  0  0  0
   -0.8645    0.7760   -0.9534 C   0  0  0  0  0  0  0  0  0  0  0  0
   -1.8745    1.1173    0.0373 C   0  0  0  0  0  0  0  0  0  0  0  0
   -1.7342    2.4154    0.6111 C   0  0  0  0  0  0  0  0  0  0  0  0
   -0.7104    3.2975    0.2301 C   0  0  0  0  0  0  0  0  0  0  0  0
    0.2175    2.9560   -0.7361 C   0  0  0  0  0  0  0  0  0  0  0  0
    0.1340    1.7106   -1.3263 C   0  0  0  0  0  0  0  0  0  0  0  0
   -2.6168    2.8769    1.5885 C   0  0  0  0  0  0  0  0  0  0  0  0
   -3.6768    2.1044    2.0502 C   0  0  0  0  0  0  0  0  0  0  0  0
   -4.5315    2.6172    3.0367 C   0  0  0  0  0  0  0  0  0  0  0  0
   -5.6007    1.8676    3.5183 C   0  0  0  0  0  0  0  0  0  0  0  0
   -5.8395    0.5860    3.0228 C   0  0  0  0  0  0  0  0  0  0  0  0
   -4.9824    0.0569    2.0250 C   0  0  0  0  0  0  0  0  0  0  0  0
   -5.2355   -1.2388    1.5357 C   0  0  0  0  0  0  0  0  0  0  0  0
   -6.3164   -1.9851    2.0302 C   0  0  0  0  0  0  0  0  0  0  0  0
   -7.1525   -1.4560    3.0090 C   0  0  0  0  0  0  0  0  0  0  0  0
   -6.9151   -0.1764    3.5028 C   0  0  0  0  0  0  0  0  0  0  0  0
   -4.3958   -1.7571    0.5595 C   0  0  0  0  0  0  0  0  0  0  0  0
   -3.3198   -1.0048    0.0740 C   0  0  0  0  0  0  0  0  0  0  0  0
   -3.0045    0.3038    0.5184 C   0  0  0  0  0  0  0  0  0  0  0  0
   -3.8814    0.8161    1.5211 C   0  0  0  0  0  0  0  0  0  0  0  0
   -0.0197   -1.6389   -1.3225 C   0  0  0  0  0  0  0  0  0  0  0  0
    1.9017    0.2241    1.0681 C   0  0  0  0  0  0  0  0  0  0  0  0
    4.6143    3.4336    1.8682 C   0  0  0  0  0  0  0  0  0  0  0  0
    5.6666    3.7420    1.0112 C   0  0  0  0  0  0  0  0  0  0  0  0
    7.9571    2.7922   -2.8402 H   0  0  0  0  0  0  0  0  0  0  0  0
    7.6041    4.1223   -0.7976 H   0  0  0  0  0  0  0  0  0  0  0  0
    6.4550    0.9138   -3.3766 H   0  0  0  0  0  0  0  0  0  0  0  0
    4.5026   -0.4884   -2.7965 H   0  0  0  0  0  0  0  0  0  0  0  0
    2.6962   -1.0308   -1.3619 H   0  0  0  0  0  0  0  0  0  0  0  0
    2.5825    2.7047    3.3522 H   0  0  0  0  0  0  0  0  0  0  0  0
    0.7251    1.5282    4.0525 H   0  0  0  0  0  0  0  0  0  0  0  0
   -0.9405   -0.2458    3.8086 H   0  0  0  0  0  0  0  0  0  0  0  0
   -0.8593   -1.7435    1.8702 H   0  0  0  0  0  0  0  0  0  0  0  0
    2.4765   -2.5226    2.0272 H   0  0  0  0  0  0  0  0  0  0  0  0
    3.6951   -4.6086    2.3203 H   0  0  0  0  0  0  0  0  0  0  0  0
    3.5391   -6.4037    0.6112 H   0  0  0  0  0  0  0  0  0  0  0  0
    2.1438   -6.0703   -1.3854 H   0  0  0  0  0  0  0  0  0  0  0  0
    0.6603   -4.7224   -2.6907 H   0  0  0  0  0  0  0  0  0  0  0  0
   -0.7666   -3.5954   -4.0536 H   0  0  0  0  0  0  0  0  0  0  0  0
   -2.2560   -2.5683   -5.6187 H   0  0  0  0  0  0  0  0  0  0  0  0
   -3.6281   -0.6582   -6.3346 H   0  0  0  0  0  0  0  0  0  0  0  0
   -3.7293    1.3845   -4.9256 H   0  0  0  0  0  0  0  0  0  0  0  0
   -2.4792    1.5030   -2.8404 H   0  0  0  0  0  0  0  0  0  0  0  0
   -0.6221    4.2790    0.6923 H   0  0  0  0  0  0  0  0  0  0  0  0
    1.0063    3.6466   -1.0184 H   0  0  0  0  0  0  0  0  0  0  0  0
    0.8650    1.4474   -2.0901 H   0  0  0  0  0  0  0  0  0  0  0  0
   -2.4754    3.8731    2.0069 H   0  0  0  0  0  0  0  0  0  0  0  0
   -4.3722    3.6142    3.4428 H   0  0  0  0  0  0  0  0  0  0  0  0
   -6.2438    2.2968    4.2830 H   0  0  0  0  0  0  0  0  0  0  0  0
   -6.5138   -2.9862    1.6533 H   0  0  0  0  0  0  0  0  0  0  0  0
   -7.9877   -2.0397    3.3861 H   0  0  0  0  0  0  0  0  0  0  0  0
   -7.5774    0.2234    4.2675 H   0  0  0  0  0  0  0  0  0  0  0  0
   -4.5587   -2.7541    0.1561 H   0  0  0  0  0  0  0  0  0  0  0  0
   -2.7265   -1.5037   -0.6786 H   0  0  0  0  0  0  0  0  0  0  0  0
    4.4819    4.0358    2.7649 H   0  0  0  0  0  0  0  0  0  0  0  0
    6.3233    4.5721    1.2599 H   0  0  0  0  0  0  0  0  0  0  0  0
  1  2  4  0
  2  3  4  0
  3  4  4  0
  4  5  4  0
  5  6  4  0
  5  7  4  0
  7  8  4  0
  8  9  4  0
  9 10  4  0
 10 11  4  0
 11 12  4  0
 12 13  4  0
 13 14  4  0
 14 15  4  0
 15 16  4  0
 16 17  4  0
 17 18  1  0
 18 19  4  0
 19 20  4  0
 20 21  4  0
 21 22  4  0
 22 23  4  0
 23 24  4  0
 24 25  4  0
 25 26  4  0
 26 27  4  0
 27 28  4  0
 28 29  4  0
 29 30  4  0
 30 31  4  0
 31 32  4  0
 32 33  4  0
 33 34  4  0
 34 35  1  0
 35 36  4  0
 36 37  4  0
 37 38  4  0
 38 39  4  0
 39 40  4  0
 37 41  4  0
 41 42  4  0
 42 43  4  0
 43 44  4  0
 44 45  4  0
 45 46  4  0
 46 47  4  0
 47 48  4  0
 48 49  4  0
 49 50  4  0
 47 51  4  0
 51 52  4  0
 52 53  4  0
 53 54  4  0
 34 55  4  0
 17 56  4  0
 11 57  4  0
 57 58  4  0
  6  1  4  0
 56  9  4  0
 58  3  4  0
 10  4  4  0
 56 13  4  0
 55 18  4  0
 24 19  4  0
 55 26  4  0
 33 28  4  0
 40 35  4  0
 54 42  4  0
 53 36  4  0
 50 45  4  0
 54 46  4  0
  1 59  1  0
  2 60  1  0
  6 61  1  0
  7 62  1  0
  8 63  1  0
 12 64  1  0
 14 65  1  0
 15 66  1  0
 16 67  1  0
 20 68  1  0
 21 69  1  0
 22 70  1  0
 23 71  1  0
 25 72  1  0
 27 73  1  0
 29 74  1  0
 30 75  1  0
 31 76  1  0
 32 77  1  0
 38 78  1  0
 39 79  1  0
 40 80  1  0
 41 81  1  0
 43 82  1  0
 44 83  1  0
 48 84  1  0
 49 85  1  0
 50 86  1  0
 51 87  1  0
 52 88  1  0
 57 89  1  0
 58 90  1  0
M  END
