
     RDKit          3D

 90103  0  0  0  0  0  0  0  0999 V2000
    3.1291    6.6475    1.3467 C   0  0  0  0  0  0  0  0  0  0  0  0
    2.5629    6.0939    2.4837 C   0  0  0  0  0  0  0  0  0  0  0  0
    2.2160    4.7396    2.4997 C   0  0  0  0  0  0  0  0  0  0  0  0
    2.4215    3.8897    1.3821 C   0  0  0  0  0  0  0  0  0  0  0  0
    2.9999    4.4836    0.2334 C   0  0  0  0  0  0  0  0  0  0  0  0
    3.3457    5.8463    0.2294 C   0  0  0  0  0  0  0  0  0  0  0  0
    3.2331    3.7137   -0.9104 C   0  0  0  0  0  0  0  0  0  0  0  0
    2.9046    2.3566   -0.9564 C   0  0  0  0  0  0  0  0  0  0  0  0
    3.1435    1.6104   -2.1182 C   0  0  0  0  0  0  0  0  0  0  0  0
    2.8123    0.2582   -2.1795 C   0  0  0  0  0  0  0  0  0  0  0  0
    2.2343   -0.3795   -1.0787 C   0  0  0  0  0  0  0  0  0  0  0  0
    2.0004    0.3547    0.1071 C   0  0  0  0  0  0  0  0  0  0  0  0
    1.4270   -0.2965    1.2192 C   0  0  0  0  0  0  0  0  0  0  0  0
    1.0815   -1.6560    1.1347 C   0  0  0  0  0  0  0  0  0  0  0  0
    1.2642   -2.3778   -0.0527 C   0  0  0  0  0  0  0  0  0  0  0  0
    0.9129   -3.8128   -0.1544 C   0  0  0  0  0  0  0  0  0  0  0  0
    1.9419   -4.7526    0.2289 C   0  0  0  0  0  0  0  0  0  0  0  0
    3.1931   -4.3931    0.8018 C   0  0  0  0  0  0  0  0  0  0  0  0
    4.1581   -5.3405    1.1544 C   0  0  0  0  0  0  0  0  0  0  0  0
    3.9081   -6.6862    0.9427 C   0  0  0  0  0  0  0  0  0  0  0  0
    2.6977   -7.0743    0.3756 C   0  0  0  0  0  0  0  0  0  0  0  0
    1.7229   -6.1236    0.0179 C   0  0  0  0  0  0  0  0  0  0  0  0
    0.5320   -6.5393   -0.5736 C   0  0  0  0  0  0  0  0  0  0  0  0
   -0.4823   -5.6457   -0.9418 C   0  0  0  0  0  0  0  0  0  0  0  0
   -1.6162   -6.2027   -1.5474 C   0  0  0  0  0  0  0  0  0  0  0  0
   -2.7088   -5.4364   -1.9473 C   0  0  0  0  0  0  0  0  0  0  0  0
   -3.8122   -6.0567   -2.5634 C   0  0  0  0  0  0  0  0  0  0  0  0
   -4.9284   -5.3207   -2.9503 C   0  0  0  0  0  0  0  0  0  0  0  0
   -4.9545   -3.9552   -2.7205 C   0  0  0  0  0  0  0  0  0  0  0  0
   -3.8614   -3.3350   -2.1094 C   0  0  0  0  0  0  0  0  0  0  0  0
   -2.7003   -4.0524   -1.7091 C   0  0  0  0  0  0  0  0  0  0  0  0
   -1.5453   -3.4593   -1.0743 C   0  0  0  0  0  0  0  0  0  0  0  0
   -1.6576   -2.0283   -0.7104 C   0  0  0  0  0  0  0  0  0  0  0  0
   -2.1774   -1.6675    0.5431 C   0  0  0  0  0  0  0  0  0  0  0  0
   -2.3101   -0.3228    0.9189 C   0  0  0  0  0  0  0  0  0  0  0  0
   -1.9237    0.6978    0.0195 C   0  0  0  0  0  0  0  0  0  0  0  0
   -1.4371    0.3441   -1.2563 C   0  0  0  0  0  0  0  0  0  0  0  0
   -1.3256   -1.0100   -1.6143 C   0  0  0  0  0  0  0  0  0  0  0  0
   -1.0504    1.3555   -2.1343 C   0  0  0  0  0  0  0  0  0  0  0  0
   -1.1301    2.6984   -1.7538 C   0  0  0  0  0  0  0  0  0  0  0  0
   -1.6085    3.0995   -0.4848 C   0  0  0  0  0  0  0  0  0  0  0  0
   -2.0122    2.0660    0.4010 C   0  0  0  0  0  0  0  0  0  0  0  0
   -2.5040    2.3844    1.6856 C   0  0  0  0  0  0  0  0  0  0  0  0
   -2.5913    3.7218    2.0808 C   0  0  0  0  0  0  0  0  0  0  0  0
   -2.1992    4.7624    1.2329 C   0  0  0  0  0  0  0  0  0  0  0  0
   -2.3045    6.0922    1.6776 C   0  0  0  0  0  0  0  0  0  0  0  0
   -1.9251    7.1562    0.8641 C   0  0  0  0  0  0  0  0  0  0  0  0
   -1.4340    6.9016   -0.4062 C   0  0  0  0  0  0  0  0  0  0  0  0
   -1.3242    5.5831   -0.8587 C   0  0  0  0  0  0  0  0  0  0  0  0
   -1.7013    4.4720   -0.0609 C   0  0  0  0  0  0  0  0  0  0  0  0
   -2.8999    1.3613    2.5578 C   0  0  0  0  0  0  0  0  0  0  0  0
   -2.8028    0.0234    2.1800 C   0  0  0  0  0  0  0  0  0  0  0  0
   -0.3672   -4.2516   -0.7144 C   0  0  0  0  0  0  0  0  0  0  0  0
    1.8690   -1.7317   -1.1426 C   0  0  0  0  0  0  0  0  0  0  0  0
    1.1941    0.4361    2.3824 C   0  0  0  0  0  0  0  0  0  0  0  0
    1.5118    1.7962    2.4444 C   0  0  0  0  0  0  0  0  0  0  0  0
    2.0843    2.4906    1.3534 C   0  0  0  0  0  0  0  0  0  0  0  0
    2.3298    1.7375    0.1750 C   0  0  0  0  0  0  0  0  0  0  0  0
    3.4019    7.6990    1.3262 H   0  0  0  0  0  0  0  0  0  0  0  0
    2.3879    6.7099    3.3620 H   0  0  0  0  0  0  0  0  0  0  0  0
    1.7740    4.3577    3.4153 H   0  0  0  0  0  0  0  0  0  0  0  0
    3.7910    6.2989   -0.6544 H   0  0  0  0  0  0  0  0  0  0  0  0
    3.6821    4.1813   -1.7853 H   0  0  0  0  0  0  0  0  0  0  0  0
    3.5874    2.0787   -2.9935 H   0  0  0  0  0  0  0  0  0  0  0  0
    3.0043   -0.2907   -3.0985 H   0  0  0  0  0  0  0  0  0  0  0  0
    0.6380   -2.1565    1.9933 H   0  0  0  0  0  0  0  0  0  0  0  0
    3.4363   -3.3478    0.9861 H   0  0  0  0  0  0  0  0  0  0  0  0
    5.0996   -5.0179    1.5908 H   0  0  0  0  0  0  0  0  0  0  0  0
    4.6514   -7.4313    1.2114 H   0  0  0  0  0  0  0  0  0  0  0  0
    2.5200   -8.1349    0.2082 H   0  0  0  0  0  0  0  0  0  0  0  0
    0.3910   -7.6057   -0.7527 H   0  0  0  0  0  0  0  0  0  0  0  0
   -1.6520   -7.2791   -1.7185 H   0  0  0  0  0  0  0  0  0  0  0  0
   -3.8104   -7.1298   -2.7441 H   0  0  0  0  0  0  0  0  0  0  0  0
   -5.7726   -5.8138   -3.4239 H   0  0  0  0  0  0  0  0  0  0  0  0
   -5.8196   -3.3655   -3.0118 H   0  0  0  0  0  0  0  0  0  0  0  0
   -3.9291   -2.2603   -1.9489 H   0  0  0  0  0  0  0  0  0  0  0  0
   -2.4673   -2.4548    1.2373 H   0  0  0  0  0  0  0  0  0  0  0  0
   -0.9456   -1.2801   -2.5976 H   0  0  0  0  0  0  0  0  0  0  0  0
   -0.6570    1.1125   -3.1183 H   0  0  0  0  0  0  0  0  0  0  0  0
   -0.7947    3.4317   -2.4809 H   0  0  0  0  0  0  0  0  0  0  0  0
   -2.9680    3.9569    3.0748 H   0  0  0  0  0  0  0  0  0  0  0  0
   -2.6879    6.3115    2.6723 H   0  0  0  0  0  0  0  0  0  0  0  0
   -2.0134    8.1776    1.2237 H   0  0  0  0  0  0  0  0  0  0  0  0
   -1.1338    7.7238   -1.0506 H   0  0  0  0  0  0  0  0  0  0  0  0
   -0.9301    5.4392   -1.8603 H   0  0  0  0  0  0  0  0  0  0  0  0
   -3.2862    1.5969    3.5471 H   0  0  0  0  0  0  0  0  0  0  0  0
   -3.1095   -0.7463    2.8842 H   0  0  0  0  0  0  0  0  0  0  0  0
    2.0429   -2.2969   -2.0570 H   0  0  0  0  0  0  0  0  0  0  0  0
    0.7420   -0.0369    3.2510 H   0  0  0  0  0  0  0  0  0  0  0  0
    1.2911    2.3065    3.3772 H   0  0  0  0  0  0  0  0  0  0  0  0
  1  2  4  0
  2  3  4  0
  3  4  4  0
  4  5  4  0
  5  6  4  0
  5  7  4  0
  7  8  4  0
  8  9  4  0
  9 10  4  0
 10 11  4  0
 11 12  4  0
 12 13  4  0
 13 14  4  0
 14 15  4  0
 15 16  1  0
 16 17  4  0
 17 18  4  0
 18 19  4  0
 19 20  4  0
 20 21  4  0
 21 22  4  0
 22 23  4  0
 23 24  4  0
 24 25  4  0
 25 26  4  0
 26 27  4  0
 27 28  4  0
 28 29  4  0
 29 30  4  0
 30 31  4  0
 31 32  4  0
 32 33  1  0
 33 34  4  0
 34 35  4  0
 35 36  4  0
 36 37  4  0
 37 38  4  0
 37 39  4  0
 39 40  4  0
 40 41  4  0
 41 42  4  0
 42 43  4  0
 43 44  4  0
 44 45  4  0
 45 46  4  0
 46 47  4  0
 47 48  4  0
 48 49  4  0
 49 50  4  0
 43 51  4  0
 51 52  4  0
 32 53  4  0
 15 54  4  0
 13 55  4  0
 55 56  4  0
 56 57  4  0
 57 58  4  0
  6  1  4  0
 58  8  4  0
 57  4  4  0
 54 11  4  0
 58 12  4  0
 53 16  4  0
 22 17  4  0
 53 24  4  0
 31 26  4  0
 38 33  4  0
 50 41  4  0
 52 35  4  0
 42 36  4  0
 50 45  4  0
  1 59  1  0
  2 60  1  0
  3 61  1  0
  6 62  1  0
  7 63  1  0
  9 64  1  0
 10 65  1  0
 14 66  1  0
 18 67  1  0
 19 68  1  0
 20 69  1  0
 21 70  1  0
 23 71  1  0
 25 72  1  0
 27 73  1  0
 28 74  1  0
 29 75  1  0
 30 76  1  0
 34 77  1  0
 38 78  1  0
 39 79  1  0
 40 80  1  0
 44 81  1  0
 46 82  1  0
 47 83  1  0
 48 84  1  0
 49 85  1  0
 51 86  1  0
 52 87  1  0
 54 88  1  0
 55 89  1  0
 56 90  1  0
M  END
