
     RDKit          3D

 90103  0  0  0  0  0  0  0  0999 V2000
    5.2300   -1.8966   -3.1010 C   0  0  0  0  0  0  0  0  0  0  0  0
    5.1946   -3.1669   -2.5501 C   0  0  0  0  0  0  0  0  0  0  0  0
    4.3884   -3.4197   -1.4362 C   0  0  0  0  0  0  0  0  0  0  0  0
    3.5866   -2.4147   -0.8326 C   0  0  0  0  0  0  0  0  0  0  0  0
    3.6418   -1.1310   -1.4177 C   0  0  0  0  0  0  0  0  0  0  0  0
    4.4575   -0.8858   -2.5369 C   0  0  0  0  0  0  0  0  0  0  0  0
    2.8744   -0.0902   -0.8866 C   0  0  0  0  0  0  0  0  0  0  0  0
    2.0258   -0.2606    0.2244 C   0  0  0  0  0  0  0  0  0  0  0  0
    1.9761   -1.5394    0.8337 C   0  0  0  0  0  0  0  0  0  0  0  0
    2.7407   -2.6220    0.3109 C   0  0  0  0  0  0  0  0  0  0  0  0
    2.6124   -3.8733    0.9563 C   0  0  0  0  0  0  0  0  0  0  0  0
    1.7815   -4.0653    2.0613 C   0  0  0  0  0  0  0  0  0  0  0  0
    1.0426   -3.0069    2.5804 C   0  0  0  0  0  0  0  0  0  0  0  0
    0.2072   -3.1951    3.6912 C   0  0  0  0  0  0  0  0  0  0  0  0
   -0.5304   -2.1353    4.2087 C   0  0  0  0  0  0  0  0  0  0  0  0
   -0.4438   -0.8790    3.6162 C   0  0  0  0  0  0  0  0  0  0  0  0
    0.3789   -0.6703    2.4990 C   0  0  0  0  0  0  0  0  0  0  0  0
    1.1378   -1.7369    1.9693 C   0  0  0  0  0  0  0  0  0  0  0  0
    0.4395    0.5807    1.8845 C   0  0  0  0  0  0  0  0  0  0  0  0
    1.2195    0.7979    0.7350 C   0  0  0  0  0  0  0  0  0  0  0  0
    1.2319    2.1678    0.1497 C   0  0  0  0  0  0  0  0  0  0  0  0
    2.2220    3.0773    0.6852 C   0  0  0  0  0  0  0  0  0  0  0  0
    3.1471    2.7526    1.7160 C   0  0  0  0  0  0  0  0  0  0  0  0
    4.0881    3.6661    2.1980 C   0  0  0  0  0  0  0  0  0  0  0  0
    4.1395    4.9426    1.6643 C   0  0  0  0  0  0  0  0  0  0  0  0
    3.2505    5.2957    0.6534 C   0  0  0  0  0  0  0  0  0  0  0  0
    2.3015    4.3782    0.1645 C   0  0  0  0  0  0  0  0  0  0  0  0
    1.4298    4.7586   -0.8527 C   0  0  0  0  0  0  0  0  0  0  0  0
    0.4625    3.8960   -1.3845 C   0  0  0  0  0  0  0  0  0  0  0  0
   -0.3384    4.4210   -2.4073 C   0  0  0  0  0  0  0  0  0  0  0  0
   -1.3446    3.6864   -3.0297 C   0  0  0  0  0  0  0  0  0  0  0  0
   -2.1133    4.2749   -4.0516 C   0  0  0  0  0  0  0  0  0  0  0  0
   -3.1299    3.5675   -4.6864 C   0  0  0  0  0  0  0  0  0  0  0  0
   -3.3897    2.2622   -4.3046 C   0  0  0  0  0  0  0  0  0  0  0  0
   -2.6283    1.6740   -3.2916 C   0  0  0  0  0  0  0  0  0  0  0  0
   -1.5802    2.3647   -2.6218 C   0  0  0  0  0  0  0  0  0  0  0  0
   -0.7660    1.8026   -1.5660 C   0  0  0  0  0  0  0  0  0  0  0  0
   -1.0848    0.4039   -1.1699 C   0  0  0  0  0  0  0  0  0  0  0  0
   -0.4542   -0.6373   -1.8722 C   0  0  0  0  0  0  0  0  0  0  0  0
   -0.6949   -1.9747   -1.5608 C   0  0  0  0  0  0  0  0  0  0  0  0
   -1.6106   -2.2907   -0.5329 C   0  0  0  0  0  0  0  0  0  0  0  0
   -1.8134   -3.6475   -0.1987 C   0  0  0  0  0  0  0  0  0  0  0  0
   -1.1193   -4.6542   -0.8871 C   0  0  0  0  0  0  0  0  0  0  0  0
   -0.2278   -4.3305   -1.9053 C   0  0  0  0  0  0  0  0  0  0  0  0
   -0.0170   -2.9970   -2.2403 C   0  0  0  0  0  0  0  0  0  0  0  0
   -2.7013   -3.9659    0.8248 C   0  0  0  0  0  0  0  0  0  0  0  0
   -3.4001   -2.9604    1.4959 C   0  0  0  0  0  0  0  0  0  0  0  0
   -3.2353   -1.5897    1.1922 C   0  0  0  0  0  0  0  0  0  0  0  0
   -2.3076   -1.2602    0.1624 C   0  0  0  0  0  0  0  0  0  0  0  0
   -2.0522    0.0929   -0.1713 C   0  0  0  0  0  0  0  0  0  0  0  0
   -2.7658    1.0913    0.5192 C   0  0  0  0  0  0  0  0  0  0  0  0
   -3.6920    0.7988    1.5238 C   0  0  0  0  0  0  0  0  0  0  0  0
   -4.3599    1.8524    2.1729 C   0  0  0  0  0  0  0  0  0  0  0  0
   -5.2847    1.6055    3.1826 C   0  0  0  0  0  0  0  0  0  0  0  0
   -5.5520    0.2982    3.5544 C   0  0  0  0  0  0  0  0  0  0  0  0
   -4.8931   -0.7560    2.9141 C   0  0  0  0  0  0  0  0  0  0  0  0
   -3.9424   -0.5440    1.8806 C   0  0  0  0  0  0  0  0  0  0  0  0
    0.3031    2.5677   -0.9143 C   0  0  0  0  0  0  0  0  0  0  0  0
    5.8558   -1.6895   -3.9645 H   0  0  0  0  0  0  0  0  0  0  0  0
    5.7933   -3.9659   -2.9791 H   0  0  0  0  0  0  0  0  0  0  0  0
    4.4020   -4.4321   -1.0438 H   0  0  0  0  0  0  0  0  0  0  0  0
    4.4967    0.1072   -2.9811 H   0  0  0  0  0  0  0  0  0  0  0  0
    2.9327    0.8866   -1.3652 H   0  0  0  0  0  0  0  0  0  0  0  0
    3.1565   -4.7438    0.6036 H   0  0  0  0  0  0  0  0  0  0  0  0
    1.7191   -5.0553    2.5063 H   0  0  0  0  0  0  0  0  0  0  0  0
    0.1201   -4.1736    4.1572 H   0  0  0  0  0  0  0  0  0  0  0  0
   -1.1827   -2.2909    5.0632 H   0  0  0  0  0  0  0  0  0  0  0  0
   -1.0437   -0.0646    4.0172 H   0  0  0  0  0  0  0  0  0  0  0  0
   -0.1489    1.4052    2.2847 H   0  0  0  0  0  0  0  0  0  0  0  0
    3.1473    1.7605    2.1654 H   0  0  0  0  0  0  0  0  0  0  0  0
    4.7749    3.3713    2.9868 H   0  0  0  0  0  0  0  0  0  0  0  0
    4.8676    5.6610    2.0295 H   0  0  0  0  0  0  0  0  0  0  0  0
    3.3048    6.3025    0.2441 H   0  0  0  0  0  0  0  0  0  0  0  0
    1.5102    5.7727   -1.2453 H   0  0  0  0  0  0  0  0  0  0  0  0
   -0.1741    5.4475   -2.7363 H   0  0  0  0  0  0  0  0  0  0  0  0
   -1.9235    5.3003   -4.3623 H   0  0  0  0  0  0  0  0  0  0  0  0
   -3.7148    4.0355   -5.4728 H   0  0  0  0  0  0  0  0  0  0  0  0
   -4.1813    1.6950   -4.7871 H   0  0  0  0  0  0  0  0  0  0  0  0
   -2.8710    0.6465   -3.0244 H   0  0  0  0  0  0  0  0  0  0  0  0
    0.2589   -0.3872   -2.6565 H   0  0  0  0  0  0  0  0  0  0  0  0
   -1.2663   -5.7004   -0.6312 H   0  0  0  0  0  0  0  0  0  0  0  0
    0.3117   -5.1132   -2.4300 H   0  0  0  0  0  0  0  0  0  0  0  0
    0.7005   -2.7571   -3.0221 H   0  0  0  0  0  0  0  0  0  0  0  0
   -2.8555   -5.0001    1.1213 H   0  0  0  0  0  0  0  0  0  0  0  0
   -4.0711   -3.2825    2.2860 H   0  0  0  0  0  0  0  0  0  0  0  0
   -2.5884    2.1374    0.2731 H   0  0  0  0  0  0  0  0  0  0  0  0
   -4.1611    2.8850    1.8916 H   0  0  0  0  0  0  0  0  0  0  0  0
   -5.7918    2.4314    3.6730 H   0  0  0  0  0  0  0  0  0  0  0  0
   -6.2731    0.0899    4.3403 H   0  0  0  0  0  0  0  0  0  0  0  0
   -5.1435   -1.7601    3.2436 H   0  0  0  0  0  0  0  0  0  0  0  0
  1  2  4  0
  2  3  4  0
  3  4  4  0
  4  5  4  0
  5  6  4  0
  5  7  4  0
  7  8  4  0
  8  9  4  0
  9 10  4  0
 10 11  4  0
 11 12  4  0
 12 13  4  0
 13 14  4  0
 14 15  4  0
 15 16  4  0
 16 17  4  0
 17 18  4  0
 17 19  4  0
 19 20  4  0
 20 21  1  0
 21 22  4  0
 22 23  4  0
 23 24  4  0
 24 25  4  0
 25 26  4  0
 26 27  4  0
 27 28  4  0
 28 29  4  0
 29 30  4  0
 30 31  4  0
 31 32  4  0
 32 33  4  0
 33 34  4  0
 34 35  4  0
 35 36  4  0
 36 37  4  0
 37 38  1  0
 38 39  4  0
 39 40  4  0
 40 41  4  0
 41 42  4  0
 42 43  4  0
 43 44  4  0
 44 45  4  0
 42 46  4  0
 46 47  4  0
 47 48  4  0
 48 49  4  0
 49 50  4  0
 50 51  4  0
 51 52  4  0
 52 53  4  0
 53 54  4  0
 54 55  4  0
 55 56  4  0
 56 57  4  0
 37 58  4  0
  6  1  4  0
 20  8  4  0
 58 21  4  0
 10  4  4  0
 18 13  4  0
 27 22  4  0
 58 29  4  0
 18  9  4  0
 36 31  4  0
 50 38  4  0
 57 52  4  0
 45 40  4  0
 57 48  4  0
 49 41  4  0
  1 59  1  0
  2 60  1  0
  3 61  1  0
  6 62  1  0
  7 63  1  0
 11 64  1  0
 12 65  1  0
 14 66  1  0
 15 67  1  0
 16 68  1  0
 19 69  1  0
 23 70  1  0
 24 71  1  0
 25 72  1  0
 26 73  1  0
 28 74  1  0
 30 75  1  0
 32 76  1  0
 33 77  1  0
 34 78  1  0
 35 79  1  0
 39 80  1  0
 43 81  1  0
 44 82  1  0
 45 83  1  0
 46 84  1  0
 47 85  1  0
 51 86  1  0
 53 87  1  0
 54 88  1  0
 55 89  1  0
 56 90  1  0
M  END
