
     RDKit          3D

 90103  0  0  0  0  0  0  0  0999 V2000
    2.3372    5.4831   -3.0384 C   0  0  0  0  0  0  0  0  0  0  0  0
    2.4143    6.0325   -1.7689 C   0  0  0  0  0  0  0  0  0  0  0  0
    2.3545    5.2015   -0.6458 C   0  0  0  0  0  0  0  0  0  0  0  0
    2.2130    3.7931   -0.7483 C   0  0  0  0  0  0  0  0  0  0  0  0
    2.1301    3.2622   -2.0576 C   0  0  0  0  0  0  0  0  0  0  0  0
    2.1961    4.1060   -3.1805 C   0  0  0  0  0  0  0  0  0  0  0  0
    1.9716    1.8868   -2.2421 C   0  0  0  0  0  0  0  0  0  0  0  0
    1.8714    1.0119   -1.1570 C   0  0  0  0  0  0  0  0  0  0  0  0
    1.6557   -0.3516   -1.3768 C   0  0  0  0  0  0  0  0  0  0  0  0
    1.4981   -1.2629   -0.3153 C   0  0  0  0  0  0  0  0  0  0  0  0
    1.2742   -2.6893   -0.6763 C   0  0  0  0  0  0  0  0  0  0  0  0
    2.4581   -3.5098   -0.8100 C   0  0  0  0  0  0  0  0  0  0  0  0
    3.7777   -3.0865   -0.4899 C   0  0  0  0  0  0  0  0  0  0  0  0
    4.8909   -3.9188   -0.6348 C   0  0  0  0  0  0  0  0  0  0  0  0
    4.7255   -5.2078   -1.1135 C   0  0  0  0  0  0  0  0  0  0  0  0
    3.4498   -5.6532   -1.4473 C   0  0  0  0  0  0  0  0  0  0  0  0
    2.3256   -4.8180   -1.3025 C   0  0  0  0  0  0  0  0  0  0  0  0
    1.0650   -5.2803   -1.6739 C   0  0  0  0  0  0  0  0  0  0  0  0
   -0.0942   -4.5032   -1.5488 C   0  0  0  0  0  0  0  0  0  0  0  0
   -1.2868   -5.0889   -1.9933 C   0  0  0  0  0  0  0  0  0  0  0  0
   -2.5175   -4.4404   -1.9202 C   0  0  0  0  0  0  0  0  0  0  0  0
   -3.6760   -5.0782   -2.4032 C   0  0  0  0  0  0  0  0  0  0  0  0
   -4.9233   -4.4663   -2.3187 C   0  0  0  0  0  0  0  0  0  0  0  0
   -5.0255   -3.2102   -1.7446 C   0  0  0  0  0  0  0  0  0  0  0  0
   -3.8781   -2.5735   -1.2640 C   0  0  0  0  0  0  0  0  0  0  0  0
   -2.5859   -3.1629   -1.3417 C   0  0  0  0  0  0  0  0  0  0  0  0
   -1.3696   -2.5484   -0.8554 C   0  0  0  0  0  0  0  0  0  0  0  0
   -1.5355   -1.2748   -0.0990 C   0  0  0  0  0  0  0  0  0  0  0  0
   -1.5195   -0.0577   -0.7999 C   0  0  0  0  0  0  0  0  0  0  0  0
   -1.6791    1.1723   -0.1490 C   0  0  0  0  0  0  0  0  0  0  0  0
   -1.5734    2.3661   -0.8683 C   0  0  0  0  0  0  0  0  0  0  0  0
   -1.6877    3.6114   -0.2441 C   0  0  0  0  0  0  0  0  0  0  0  0
   -1.5206    4.7837   -1.0027 C   0  0  0  0  0  0  0  0  0  0  0  0
   -1.6399    6.0421   -0.4202 C   0  0  0  0  0  0  0  0  0  0  0  0
   -1.9262    6.1427    0.9315 C   0  0  0  0  0  0  0  0  0  0  0  0
   -2.0792    4.9836    1.6980 C   0  0  0  0  0  0  0  0  0  0  0  0
   -1.9584    3.6826    1.1425 C   0  0  0  0  0  0  0  0  0  0  0  0
   -2.0807    2.4610    1.8942 C   0  0  0  0  0  0  0  0  0  0  0  0
   -1.9206    1.2092    1.2380 C   0  0  0  0  0  0  0  0  0  0  0  0
   -1.9971   -0.0183    1.9563 C   0  0  0  0  0  0  0  0  0  0  0  0
   -1.8064   -1.2630    1.2973 C   0  0  0  0  0  0  0  0  0  0  0  0
   -1.9033   -2.4445    2.0691 C   0  0  0  0  0  0  0  0  0  0  0  0
   -2.1696   -2.4101    3.4355 C   0  0  0  0  0  0  0  0  0  0  0  0
   -2.3465   -1.1892    4.0712 C   0  0  0  0  0  0  0  0  0  0  0  0
   -2.2621    0.0054    3.3467 C   0  0  0  0  0  0  0  0  0  0  0  0
   -2.4395    1.2277    3.9912 C   0  0  0  0  0  0  0  0  0  0  0  0
   -2.3480    2.4254    3.2805 C   0  0  0  0  0  0  0  0  0  0  0  0
   -0.0619   -3.1946   -1.0050 C   0  0  0  0  0  0  0  0  0  0  0  0
    1.6377   -0.7996    1.0177 C   0  0  0  0  0  0  0  0  0  0  0  0
    1.8575    0.5869    1.2464 C   0  0  0  0  0  0  0  0  0  0  0  0
    1.9665    1.0683    2.5717 C   0  0  0  0  0  0  0  0  0  0  0  0
    1.8793    0.1826    3.6530 C   0  0  0  0  0  0  0  0  0  0  0  0
    1.6844   -1.1753    3.4372 C   0  0  0  0  0  0  0  0  0  0  0  0
    1.5656   -1.6583    2.1366 C   0  0  0  0  0  0  0  0  0  0  0  0
    2.1581    2.4317    2.7915 C   0  0  0  0  0  0  0  0  0  0  0  0
    2.2392    3.3229    1.7192 C   0  0  0  0  0  0  0  0  0  0  0  0
    2.1430    2.8968    0.3770 C   0  0  0  0  0  0  0  0  0  0  0  0
    1.9609    1.5037    0.1590 C   0  0  0  0  0  0  0  0  0  0  0  0
    2.3875    6.1214   -3.9161 H   0  0  0  0  0  0  0  0  0  0  0  0
    2.5252    7.1066   -1.6439 H   0  0  0  0  0  0  0  0  0  0  0  0
    2.4182    5.6854    0.3245 H   0  0  0  0  0  0  0  0  0  0  0  0
    2.1375    3.6915   -4.1851 H   0  0  0  0  0  0  0  0  0  0  0  0
    1.9034    1.4884   -3.2532 H   0  0  0  0  0  0  0  0  0  0  0  0
    1.5828   -0.7265   -2.3976 H   0  0  0  0  0  0  0  0  0  0  0  0
    3.9586   -2.0826   -0.1088 H   0  0  0  0  0  0  0  0  0  0  0  0
    5.8794   -3.5523   -0.3716 H   0  0  0  0  0  0  0  0  0  0  0  0
    5.5834   -5.8636   -1.2314 H   0  0  0  0  0  0  0  0  0  0  0  0
    3.3383   -6.6660   -1.8299 H   0  0  0  0  0  0  0  0  0  0  0  0
    0.9864   -6.2896   -2.0795 H   0  0  0  0  0  0  0  0  0  0  0  0
   -1.2586   -6.0918   -2.4208 H   0  0  0  0  0  0  0  0  0  0  0  0
   -3.6139   -6.0687   -2.8497 H   0  0  0  0  0  0  0  0  0  0  0  0
   -5.8083   -4.9714   -2.6949 H   0  0  0  0  0  0  0  0  0  0  0  0
   -5.9916   -2.7191   -1.6641 H   0  0  0  0  0  0  0  0  0  0  0  0
   -4.0097   -1.5888   -0.8181 H   0  0  0  0  0  0  0  0  0  0  0  0
   -1.3466   -0.0780   -1.8751 H   0  0  0  0  0  0  0  0  0  0  0  0
   -1.3639    2.3250   -1.9360 H   0  0  0  0  0  0  0  0  0  0  0  0
   -1.2761    4.7235   -2.0612 H   0  0  0  0  0  0  0  0  0  0  0  0
   -1.5053    6.9370   -1.0210 H   0  0  0  0  0  0  0  0  0  0  0  0
   -2.0230    7.1189    1.3990 H   0  0  0  0  0  0  0  0  0  0  0  0
   -2.2896    5.1203    2.7546 H   0  0  0  0  0  0  0  0  0  0  0  0
   -1.7671   -3.4196    1.6064 H   0  0  0  0  0  0  0  0  0  0  0  0
   -2.2362   -3.3359    3.9996 H   0  0  0  0  0  0  0  0  0  0  0  0
   -2.5501   -1.1772    5.1391 H   0  0  0  0  0  0  0  0  0  0  0  0
   -2.6459    1.2674    5.0583 H   0  0  0  0  0  0  0  0  0  0  0  0
   -2.4878    3.3408    3.8477 H   0  0  0  0  0  0  0  0  0  0  0  0
    1.9560    0.5464    4.6745 H   0  0  0  0  0  0  0  0  0  0  0  0
    1.6091   -1.8578    4.2786 H   0  0  0  0  0  0  0  0  0  0  0  0
    1.3969   -2.7248    2.0035 H   0  0  0  0  0  0  0  0  0  0  0  0
    2.2399    2.8228    3.8032 H   0  0  0  0  0  0  0  0  0  0  0  0
    2.3820    4.3708    1.9657 H   0  0  0  0  0  0  0  0  0  0  0  0
  1  2  4  0
  2  3  4  0
  3  4  4  0
  4  5  4  0
  5  6  4  0
  5  7  4  0
  7  8  4  0
  8  9  4  0
  9 10  4  0
 10 11  1  0
 11 12  4  0
 12 13  4  0
 13 14  4  0
 14 15  4  0
 15 16  4  0
 16 17  4  0
 17 18  4  0
 18 19  4  0
 19 20  4  0
 20 21  4  0
 21 22  4  0
 22 23  4  0
 23 24  4  0
 24 25  4  0
 25 26  4  0
 26 27  4  0
 27 28  1  0
 28 29  4  0
 29 30  4  0
 30 31  4  0
 31 32  4  0
 32 33  4  0
 33 34  4  0
 34 35  4  0
 35 36  4  0
 36 37  4  0
 37 38  4  0
 38 39  4  0
 39 40  4  0
 40 41  4  0
 41 42  4  0
 42 43  4  0
 43 44  4  0
 44 45  4  0
 45 46  4  0
 46 47  4  0
 27 48  4  0
 10 49  4  0
 49 50  4  0
 50 51  4  0
 51 52  4  0
 52 53  4  0
 53 54  4  0
 51 55  4  0
 55 56  4  0
 56 57  4  0
 57 58  4  0
  6  1  4  0
 58  8  4  0
 57  4  4  0
 48 11  4  0
 54 49  4  0
 17 12  4  0
 48 19  4  0
 58 50  4  0
 26 21  4  0
 41 28  4  0
 39 30  4  0
 45 40  4  0
 37 32  4  0
 47 38  4  0
  1 59  1  0
  2 60  1  0
  3 61  1  0
  6 62  1  0
  7 63  1  0
  9 64  1  0
 13 65  1  0
 14 66  1  0
 15 67  1  0
 16 68  1  0
 18 69  1  0
 20 70  1  0
 22 71  1  0
 23 72  1  0
 24 73  1  0
 25 74  1  0
 29 75  1  0
 31 76  1  0
 33 77  1  0
 34 78  1  0
 35 79  1  0
 36 80  1  0
 42 81  1  0
 43 82  1  0
 44 83  1  0
 46 84  1  0
 47 85  1  0
 52 86  1  0
 53 87  1  0
 54 88  1  0
 55 89  1  0
 56 90  1  0
M  END
