
     RDKit          3D

 90103  0  0  0  0  0  0  0  0999 V2000
    5.5260    5.8580    0.2645 C   0  0  0  0  0  0  0  0  0  0  0  0
    4.5294    6.1800    1.1716 C   0  0  0  0  0  0  0  0  0  0  0  0
    3.5870    5.2157    1.5418 C   0  0  0  0  0  0  0  0  0  0  0  0
    3.6049    3.8955    1.0204 C   0  0  0  0  0  0  0  0  0  0  0  0
    4.6339    3.5960    0.0955 C   0  0  0  0  0  0  0  0  0  0  0  0
    5.5762    4.5737   -0.2697 C   0  0  0  0  0  0  0  0  0  0  0  0
    4.7197    2.3177   -0.4633 C   0  0  0  0  0  0  0  0  0  0  0  0
    3.8043    1.3139   -0.1359 C   0  0  0  0  0  0  0  0  0  0  0  0
    3.9148    0.0483   -0.7175 C   0  0  0  0  0  0  0  0  0  0  0  0
    2.9979   -0.9570   -0.4154 C   0  0  0  0  0  0  0  0  0  0  0  0
    1.9345   -0.7384    0.4812 C   0  0  0  0  0  0  0  0  0  0  0  0
    1.8396    0.5400    1.0961 C   0  0  0  0  0  0  0  0  0  0  0  0
    0.8042    0.7928    2.0234 C   0  0  0  0  0  0  0  0  0  0  0  0
   -0.1094   -0.2119    2.3489 C   0  0  0  0  0  0  0  0  0  0  0  0
   -0.0293   -1.4591    1.7395 C   0  0  0  0  0  0  0  0  0  0  0  0
    0.9593   -1.7341    0.7794 C   0  0  0  0  0  0  0  0  0  0  0  0
    0.9872   -3.0963    0.1812 C   0  0  0  0  0  0  0  0  0  0  0  0
    1.7769   -4.0834    0.8866 C   0  0  0  0  0  0  0  0  0  0  0  0
    2.5346   -3.8258    2.0629 C   0  0  0  0  0  0  0  0  0  0  0  0
    3.2846   -4.8135    2.7071 C   0  0  0  0  0  0  0  0  0  0  0  0
    3.3032   -6.1010    2.1979 C   0  0  0  0  0  0  0  0  0  0  0  0
    2.5719   -6.3907    1.0496 C   0  0  0  0  0  0  0  0  0  0  0  0
    1.8156   -5.3982    0.3973 C   0  0  0  0  0  0  0  0  0  0  0  0
    1.0896   -5.7193   -0.7468 C   0  0  0  0  0  0  0  0  0  0  0  0
    0.3189   -4.7804   -1.4452 C   0  0  0  0  0  0  0  0  0  0  0  0
   -0.3605   -5.2569   -2.5741 C   0  0  0  0  0  0  0  0  0  0  0  0
   -1.1617   -4.4435   -3.3715 C   0  0  0  0  0  0  0  0  0  0  0  0
   -1.8207   -4.9886   -4.4900 C   0  0  0  0  0  0  0  0  0  0  0  0
   -2.6247   -4.2000   -5.3080 C   0  0  0  0  0  0  0  0  0  0  0  0
   -2.7768   -2.8552   -5.0160 C   0  0  0  0  0  0  0  0  0  0  0  0
   -2.1238   -2.3103   -3.9071 C   0  0  0  0  0  0  0  0  0  0  0  0
   -1.2964   -3.0849   -3.0468 C   0  0  0  0  0  0  0  0  0  0  0  0
   -0.6022   -2.5698   -1.8856 C   0  0  0  0  0  0  0  0  0  0  0  0
   -0.7573   -1.1126   -1.6260 C   0  0  0  0  0  0  0  0  0  0  0  0
    0.1561   -0.2361   -2.2358 C   0  0  0  0  0  0  0  0  0  0  0  0
    0.0652    1.1390   -2.0479 C   0  0  0  0  0  0  0  0  0  0  0  0
   -0.9520    1.6781   -1.2571 C   0  0  0  0  0  0  0  0  0  0  0  0
   -1.0166    3.0528   -1.0400 C   0  0  0  0  0  0  0  0  0  0  0  0
   -2.0334    3.6018   -0.2567 C   0  0  0  0  0  0  0  0  0  0  0  0
   -3.0332    2.8070    0.3461 C   0  0  0  0  0  0  0  0  0  0  0  0
   -2.9577    1.4040    0.1255 C   0  0  0  0  0  0  0  0  0  0  0  0
   -3.9232    0.5529    0.7027 C   0  0  0  0  0  0  0  0  0  0  0  0
   -4.9488    1.0894    1.4853 C   0  0  0  0  0  0  0  0  0  0  0  0
   -5.0481    2.4639    1.7182 C   0  0  0  0  0  0  0  0  0  0  0  0
   -6.0990    2.9552    2.5130 C   0  0  0  0  0  0  0  0  0  0  0  0
   -6.2321    4.3166    2.7691 C   0  0  0  0  0  0  0  0  0  0  0  0
   -5.3143    5.2042    2.2311 C   0  0  0  0  0  0  0  0  0  0  0  0
   -4.2660    4.7268    1.4387 C   0  0  0  0  0  0  0  0  0  0  0  0
   -4.0951    3.3465    1.1551 C   0  0  0  0  0  0  0  0  0  0  0  0
   -3.8524   -0.8261    0.4917 C   0  0  0  0  0  0  0  0  0  0  0  0
   -2.8289   -1.3776   -0.2765 C   0  0  0  0  0  0  0  0  0  0  0  0
   -1.8340   -0.5733   -0.8638 C   0  0  0  0  0  0  0  0  0  0  0  0
   -1.9182    0.8326   -0.6680 C   0  0  0  0  0  0  0  0  0  0  0  0
    0.2312   -3.4263   -1.0330 C   0  0  0  0  0  0  0  0  0  0  0  0
    0.6956    2.0526    2.6073 C   0  0  0  0  0  0  0  0  0  0  0  0
    1.5999    3.0657    2.2849 C   0  0  0  0  0  0  0  0  0  0  0  0
    2.6583    2.8688    1.3708 C   0  0  0  0  0  0  0  0  0  0  0  0
    2.7664    1.5787    0.7819 C   0  0  0  0  0  0  0  0  0  0  0  0
    6.2633    6.6011   -0.0270 H   0  0  0  0  0  0  0  0  0  0  0  0
    4.4799    7.1791    1.5968 H   0  0  0  0  0  0  0  0  0  0  0  0
    2.8290    5.5227    2.2566 H   0  0  0  0  0  0  0  0  0  0  0  0
    6.3659    4.3380   -0.9804 H   0  0  0  0  0  0  0  0  0  0  0  0
    5.5167    2.0984   -1.1724 H   0  0  0  0  0  0  0  0  0  0  0  0
    4.7139   -0.1718   -1.4221 H   0  0  0  0  0  0  0  0  0  0  0  0
    3.1200   -1.9212   -0.9047 H   0  0  0  0  0  0  0  0  0  0  0  0
   -0.9115   -0.0263    3.0594 H   0  0  0  0  0  0  0  0  0  0  0  0
   -0.7623   -2.2200    1.9995 H   0  0  0  0  0  0  0  0  0  0  0  0
    2.5528   -2.8286    2.5001 H   0  0  0  0  0  0  0  0  0  0  0  0
    3.8494   -4.5680    3.6025 H   0  0  0  0  0  0  0  0  0  0  0  0
    3.8825   -6.8772    2.6895 H   0  0  0  0  0  0  0  0  0  0  0  0
    2.5959   -7.4078    0.6629 H   0  0  0  0  0  0  0  0  0  0  0  0
    1.1283   -6.7479   -1.1072 H   0  0  0  0  0  0  0  0  0  0  0  0
   -0.2643   -6.3085   -2.8471 H   0  0  0  0  0  0  0  0  0  0  0  0
   -1.7104   -6.0434   -4.7336 H   0  0  0  0  0  0  0  0  0  0  0  0
   -3.1277   -4.6352   -6.1666 H   0  0  0  0  0  0  0  0  0  0  0  0
   -3.4009   -2.2234   -5.6424 H   0  0  0  0  0  0  0  0  0  0  0  0
   -2.2764   -1.2490   -3.7171 H   0  0  0  0  0  0  0  0  0  0  0  0
    0.9643   -0.6321   -2.8472 H   0  0  0  0  0  0  0  0  0  0  0  0
    0.8133    1.7815   -2.5062 H   0  0  0  0  0  0  0  0  0  0  0  0
   -0.2691    3.7163   -1.4704 H   0  0  0  0  0  0  0  0  0  0  0  0
   -2.0209    4.6799   -0.1290 H   0  0  0  0  0  0  0  0  0  0  0  0
   -5.6881    0.4204    1.9234 H   0  0  0  0  0  0  0  0  0  0  0  0
   -6.8291    2.2727    2.9436 H   0  0  0  0  0  0  0  0  0  0  0  0
   -7.0496    4.6793    3.3858 H   0  0  0  0  0  0  0  0  0  0  0  0
   -5.4075    6.2698    2.4232 H   0  0  0  0  0  0  0  0  0  0  0  0
   -3.5772    5.4668    1.0418 H   0  0  0  0  0  0  0  0  0  0  0  0
   -4.5906   -1.4941    0.9298 H   0  0  0  0  0  0  0  0  0  0  0  0
   -2.8122   -2.4583   -0.4016 H   0  0  0  0  0  0  0  0  0  0  0  0
   -0.1008    2.2655    3.3169 H   0  0  0  0  0  0  0  0  0  0  0  0
    1.4521    4.0234    2.7746 H   0  0  0  0  0  0  0  0  0  0  0  0
  1  2  4  0
  2  3  4  0
  3  4  4  0
  4  5  4  0
  5  6  4  0
  5  7  4  0
  7  8  4  0
  8  9  4  0
  9 10  4  0
 10 11  4  0
 11 12  4  0
 12 13  4  0
 13 14  4  0
 14 15  4  0
 15 16  4  0
 16 17  1  0
 17 18  4  0
 18 19  4  0
 19 20  4  0
 20 21  4  0
 21 22  4  0
 22 23  4  0
 23 24  4  0
 24 25  4  0
 25 26  4  0
 26 27  4  0
 27 28  4  0
 28 29  4  0
 29 30  4  0
 30 31  4  0
 31 32  4  0
 32 33  4  0
 33 34  1  0
 34 35  4  0
 35 36  4  0
 36 37  4  0
 37 38  4  0
 38 39  4  0
 39 40  4  0
 40 41  4  0
 41 42  4  0
 42 43  4  0
 43 44  4  0
 44 45  4  0
 45 46  4  0
 46 47  4  0
 47 48  4  0
 48 49  4  0
 42 50  4  0
 50 51  4  0
 51 52  4  0
 52 53  4  0
 33 54  4  0
 13 55  4  0
 55 56  4  0
 56 57  4  0
 57 58  4  0
  6  1  4  0
 58  8  4  0
 57  4  4  0
 16 11  4  0
 54 17  4  0
 58 12  4  0
 23 18  4  0
 54 25  4  0
 32 27  4  0
 52 34  4  0
 53 37  4  0
 49 40  4  0
 53 41  4  0
 49 44  4  0
  1 59  1  0
  2 60  1  0
  3 61  1  0
  6 62  1  0
  7 63  1  0
  9 64  1  0
 10 65  1  0
 14 66  1  0
 15 67  1  0
 19 68  1  0
 20 69  1  0
 21 70  1  0
 22 71  1  0
 24 72  1  0
 26 73  1  0
 28 74  1  0
 29 75  1  0
 30 76  1  0
 31 77  1  0
 35 78  1  0
 36 79  1  0
 38 80  1  0
 39 81  1  0
 43 82  1  0
 45 83  1  0
 46 84  1  0
 47 85  1  0
 48 86  1  0
 50 87  1  0
 51 88  1  0
 55 89  1  0
 56 90  1  0
M  END
