
     RDKit          3D

 90103  0  0  0  0  0  0  0  0999 V2000
    4.8557    5.7024   -0.1614 C   0  0  0  0  0  0  0  0  0  0  0  0
    3.9305    5.8493    0.8697 C   0  0  0  0  0  0  0  0  0  0  0  0
    3.1526    4.7613    1.2915 C   0  0  0  0  0  0  0  0  0  0  0  0
    3.3056    3.5019    0.6618 C   0  0  0  0  0  0  0  0  0  0  0  0
    4.2445    3.3623   -0.3827 C   0  0  0  0  0  0  0  0  0  0  0  0
    5.0127    4.4659   -0.7833 C   0  0  0  0  0  0  0  0  0  0  0  0
    4.3899    2.1203   -0.9996 C   0  0  0  0  0  0  0  0  0  0  0  0
    3.6117    1.0305   -0.5978 C   0  0  0  0  0  0  0  0  0  0  0  0
    2.6525    1.1251    0.4375 C   0  0  0  0  0  0  0  0  0  0  0  0
    2.5195    2.3888    1.0721 C   0  0  0  0  0  0  0  0  0  0  0  0
    1.5895    2.5630    2.1194 C   0  0  0  0  0  0  0  0  0  0  0  0
    0.7957    1.4875    2.5238 C   0  0  0  0  0  0  0  0  0  0  0  0
    0.8838    0.2396    1.9003 C   0  0  0  0  0  0  0  0  0  0  0  0
    0.0268   -0.7927    2.3108 C   0  0  0  0  0  0  0  0  0  0  0  0
    0.0325   -2.0287    1.6687 C   0  0  0  0  0  0  0  0  0  0  0  0
    0.9052   -2.2665    0.6044 C   0  0  0  0  0  0  0  0  0  0  0  0
    0.9201   -3.5887   -0.0632 C   0  0  0  0  0  0  0  0  0  0  0  0
    1.8029   -4.5820    0.5068 C   0  0  0  0  0  0  0  0  0  0  0  0
    2.7122   -4.3407    1.5738 C   0  0  0  0  0  0  0  0  0  0  0  0
    3.5488   -5.3346    2.0892 C   0  0  0  0  0  0  0  0  0  0  0  0
    3.5027   -6.6128    1.5581 C   0  0  0  0  0  0  0  0  0  0  0  0
    2.6185   -6.8880    0.5188 C   0  0  0  0  0  0  0  0  0  0  0  0
    1.7751   -5.8893   -0.0046 C   0  0  0  0  0  0  0  0  0  0  0  0
    0.8870   -6.1989   -1.0323 C   0  0  0  0  0  0  0  0  0  0  0  0
    0.0322   -5.2491   -1.6069 C   0  0  0  0  0  0  0  0  0  0  0  0
   -0.8191   -5.7099   -2.6200 C   0  0  0  0  0  0  0  0  0  0  0  0
   -1.7098   -4.8765   -3.2929 C   0  0  0  0  0  0  0  0  0  0  0  0
   -2.5487   -5.4072   -4.2915 C   0  0  0  0  0  0  0  0  0  0  0  0
   -3.4341   -4.5954   -4.9946 C   0  0  0  0  0  0  0  0  0  0  0  0
   -3.4863   -3.2412   -4.7092 C   0  0  0  0  0  0  0  0  0  0  0  0
   -2.6546   -2.7099   -3.7194 C   0  0  0  0  0  0  0  0  0  0  0  0
   -1.7442   -3.5094   -2.9740 C   0  0  0  0  0  0  0  0  0  0  0  0
   -0.8655   -3.0105   -1.9398 C   0  0  0  0  0  0  0  0  0  0  0  0
   -0.8544   -1.5433   -1.7395 C   0  0  0  0  0  0  0  0  0  0  0  0
    0.0369   -0.7452   -2.4604 C   0  0  0  0  0  0  0  0  0  0  0  0
    0.0557    0.6344   -2.2708 C   0  0  0  0  0  0  0  0  0  0  0  0
   -0.8173    1.2516   -1.3620 C   0  0  0  0  0  0  0  0  0  0  0  0
   -0.7112    2.6281   -1.1418 C   0  0  0  0  0  0  0  0  0  0  0  0
   -1.5416    3.2879   -0.2335 C   0  0  0  0  0  0  0  0  0  0  0  0
   -1.3938    4.6635   -0.0090 C   0  0  0  0  0  0  0  0  0  0  0  0
   -2.2251    5.3352    0.8864 C   0  0  0  0  0  0  0  0  0  0  0  0
   -3.2221    4.6456    1.5827 C   0  0  0  0  0  0  0  0  0  0  0  0
   -3.3759    3.2530    1.3754 C   0  0  0  0  0  0  0  0  0  0  0  0
   -4.3768    2.5559    2.0859 C   0  0  0  0  0  0  0  0  0  0  0  0
   -5.2084    3.2471    2.9801 C   0  0  0  0  0  0  0  0  0  0  0  0
   -5.0537    4.6173    3.1775 C   0  0  0  0  0  0  0  0  0  0  0  0
   -4.0656    5.3122    2.4837 C   0  0  0  0  0  0  0  0  0  0  0  0
   -4.5183    1.1834    1.8838 C   0  0  0  0  0  0  0  0  0  0  0  0
   -3.6802    0.5050    0.9937 C   0  0  0  0  0  0  0  0  0  0  0  0
   -2.6655    1.1613    0.2587 C   0  0  0  0  0  0  0  0  0  0  0  0
   -2.5305    2.5605    0.4634 C   0  0  0  0  0  0  0  0  0  0  0  0
   -1.7790    0.4905   -0.6549 C   0  0  0  0  0  0  0  0  0  0  0  0
   -1.7754   -0.9120   -0.8837 C   0  0  0  0  0  0  0  0  0  0  0  0
    0.0288   -3.8954   -1.1865 C   0  0  0  0  0  0  0  0  0  0  0  0
    1.8089   -1.2510    0.2422 C   0  0  0  0  0  0  0  0  0  0  0  0
    1.8097    0.0337    0.8495 C   0  0  0  0  0  0  0  0  0  0  0  0
    1.4568    3.8131    2.7392 C   0  0  0  0  0  0  0  0  0  0  0  0
    2.2255    4.9007    2.3278 C   0  0  0  0  0  0  0  0  0  0  0  0
    5.4568    6.5509   -0.4781 H   0  0  0  0  0  0  0  0  0  0  0  0
    3.8230    6.8217    1.3453 H   0  0  0  0  0  0  0  0  0  0  0  0
    5.7414    4.3691   -1.5852 H   0  0  0  0  0  0  0  0  0  0  0  0
    5.1084    1.9816   -1.8041 H   0  0  0  0  0  0  0  0  0  0  0  0
    3.7730    0.0940   -1.1240 H   0  0  0  0  0  0  0  0  0  0  0  0
    0.0694    1.6355    3.3216 H   0  0  0  0  0  0  0  0  0  0  0  0
   -0.6829   -0.6316    3.1195 H   0  0  0  0  0  0  0  0  0  0  0  0
   -0.6580   -2.8027    1.9947 H   0  0  0  0  0  0  0  0  0  0  0  0
    2.7838   -3.3519    2.0240 H   0  0  0  0  0  0  0  0  0  0  0  0
    4.2311   -5.1009    2.9022 H   0  0  0  0  0  0  0  0  0  0  0  0
    4.1480   -7.3939    1.9501 H   0  0  0  0  0  0  0  0  0  0  0  0
    2.5903   -7.8986    0.1160 H   0  0  0  0  0  0  0  0  0  0  0  0
    0.8650   -7.2248   -1.4013 H   0  0  0  0  0  0  0  0  0  0  0  0
   -0.7914   -6.7642   -2.8976 H   0  0  0  0  0  0  0  0  0  0  0  0
   -2.5157   -6.4681   -4.5321 H   0  0  0  0  0  0  0  0  0  0  0  0
   -4.0757   -5.0196   -5.7616 H   0  0  0  0  0  0  0  0  0  0  0  0
   -4.1694   -2.5918   -5.2503 H   0  0  0  0  0  0  0  0  0  0  0  0
   -2.7315   -1.6402   -3.5316 H   0  0  0  0  0  0  0  0  0  0  0  0
    0.7383   -1.1991   -3.1565 H   0  0  0  0  0  0  0  0  0  0  0  0
    0.7880    1.2238   -2.8185 H   0  0  0  0  0  0  0  0  0  0  0  0
    0.0535    3.1950   -1.6710 H   0  0  0  0  0  0  0  0  0  0  0  0
   -0.6179    5.2263   -0.5249 H   0  0  0  0  0  0  0  0  0  0  0  0
   -2.0841    6.4033    1.0357 H   0  0  0  0  0  0  0  0  0  0  0  0
   -5.9835    2.7199    3.5318 H   0  0  0  0  0  0  0  0  0  0  0  0
   -5.7022    5.1431    3.8732 H   0  0  0  0  0  0  0  0  0  0  0  0
   -3.9581    6.3815    2.6522 H   0  0  0  0  0  0  0  0  0  0  0  0
   -5.2820    0.6216    2.4170 H   0  0  0  0  0  0  0  0  0  0  0  0
   -3.8456   -0.5631    0.8845 H   0  0  0  0  0  0  0  0  0  0  0  0
   -2.4780   -1.5543   -0.3597 H   0  0  0  0  0  0  0  0  0  0  0  0
    2.4955   -1.4728   -0.5701 H   0  0  0  0  0  0  0  0  0  0  0  0
    0.7447    3.9536    3.5500 H   0  0  0  0  0  0  0  0  0  0  0  0
    2.0926    5.8576    2.8274 H   0  0  0  0  0  0  0  0  0  0  0  0
  1  2  4  0
  2  3  4  0
  3  4  4  0
  4  5  4  0
  5  6  4  0
  5  7  4  0
  7  8  4  0
  8  9  4  0
  9 10  4  0
 10 11  4  0
 11 12  4  0
 12 13  4  0
 13 14  4  0
 14 15  4  0
 15 16  4  0
 16 17  1  0
 17 18  4  0
 18 19  4  0
 19 20  4  0
 20 21  4  0
 21 22  4  0
 22 23  4  0
 23 24  4  0
 24 25  4  0
 25 26  4  0
 26 27  4  0
 27 28  4  0
 28 29  4  0
 29 30  4  0
 30 31  4  0
 31 32  4  0
 32 33  4  0
 33 34  1  0
 34 35  4  0
 35 36  4  0
 36 37  4  0
 37 38  4  0
 38 39  4  0
 39 40  4  0
 40 41  4  0
 41 42  4  0
 42 43  4  0
 43 44  4  0
 44 45  4  0
 45 46  4  0
 46 47  4  0
 44 48  4  0
 48 49  4  0
 49 50  4  0
 50 51  4  0
 50 52  4  0
 52 53  4  0
 33 54  4  0
 16 55  4  0
 55 56  4  0
 11 57  4  0
 57 58  4  0
  6  1  4  0
 56  9  4  0
 58  3  4  0
 10  4  4  0
 56 13  4  0
 54 17  4  0
 23 18  4  0
 54 25  4  0
 32 27  4  0
 53 34  4  0
 52 37  4  0
 51 39  4  0
 47 42  4  0
 51 43  4  0
  1 59  1  0
  2 60  1  0
  6 61  1  0
  7 62  1  0
  8 63  1  0
 12 64  1  0
 14 65  1  0
 15 66  1  0
 19 67  1  0
 20 68  1  0
 21 69  1  0
 22 70  1  0
 24 71  1  0
 26 72  1  0
 28 73  1  0
 29 74  1  0
 30 75  1  0
 31 76  1  0
 35 77  1  0
 36 78  1  0
 38 79  1  0
 40 80  1  0
 41 81  1  0
 45 82  1  0
 46 83  1  0
 47 84  1  0
 48 85  1  0
 49 86  1  0
 53 87  1  0
 55 88  1  0
 57 89  1  0
 58 90  1  0
M  END
