
     RDKit          3D

 62 69  0  0  0  0  0  0  0  0999 V2000
    1.8154    3.1697    2.7730 C   0  0  0  0  0  0  0  0  0  0  0  0
    1.3433    1.8985    3.0683 C   0  0  0  0  0  0  0  0  0  0  0  0
    1.3032    0.9223    2.0706 C   0  0  0  0  0  0  0  0  0  0  0  0
    1.7328    1.1885    0.7490 C   0  0  0  0  0  0  0  0  0  0  0  0
    2.2296    2.4874    0.4709 C   0  0  0  0  0  0  0  0  0  0  0  0
    2.2565    3.4611    1.4833 C   0  0  0  0  0  0  0  0  0  0  0  0
    2.7051    2.7948   -0.8123 C   0  0  0  0  0  0  0  0  0  0  0  0
    2.7136    1.8364   -1.8211 C   0  0  0  0  0  0  0  0  0  0  0  0
    2.2249    0.5597   -1.5646 C   0  0  0  0  0  0  0  0  0  0  0  0
    1.7049    0.2200   -0.2996 C   0  0  0  0  0  0  0  0  0  0  0  0
    1.2681   -1.1850   -0.0738 C   0  0  0  0  0  0  0  0  0  0  0  0
    2.2900   -2.0943    0.4047 C   0  0  0  0  0  0  0  0  0  0  0  0
    3.6432   -1.7345    0.6581 C   0  0  0  0  0  0  0  0  0  0  0  0
    4.5931   -2.6493    1.1209 C   0  0  0  0  0  0  0  0  0  0  0  0
    4.2248   -3.9642    1.3488 C   0  0  0  0  0  0  0  0  0  0  0  0
    2.9094   -4.3527    1.1136 C   0  0  0  0  0  0  0  0  0  0  0  0
    1.9498   -3.4338    0.6478 C   0  0  0  0  0  0  0  0  0  0  0  0
    0.6418   -3.8534    0.4241 C   0  0  0  0  0  0  0  0  0  0  0  0
   -0.3601   -2.9939   -0.0434 C   0  0  0  0  0  0  0  0  0  0  0  0
   -1.6252   -3.5674   -0.2222 C   0  0  0  0  0  0  0  0  0  0  0  0
   -2.7203   -2.8461   -0.6886 C   0  0  0  0  0  0  0  0  0  0  0  0
   -3.9638   -3.4871   -0.8485 C   0  0  0  0  0  0  0  0  0  0  0  0
   -5.0764   -2.7942   -1.3154 C   0  0  0  0  0  0  0  0  0  0  0  0
   -4.9560   -1.4507   -1.6274 C   0  0  0  0  0  0  0  0  0  0  0  0
   -3.7229   -0.8116   -1.4703 C   0  0  0  0  0  0  0  0  0  0  0  0
   -2.5633   -1.4856   -0.9950 C   0  0  0  0  0  0  0  0  0  0  0  0
   -1.2645   -0.8691   -0.8123 C   0  0  0  0  0  0  0  0  0  0  0  0
   -1.1730    0.5720   -1.1729 C   0  0  0  0  0  0  0  0  0  0  0  0
   -0.8357    0.9019   -2.5009 C   0  0  0  0  0  0  0  0  0  0  0  0
   -0.7932    2.2263   -2.9234 C   0  0  0  0  0  0  0  0  0  0  0  0
   -1.1020    3.2465   -2.0290 C   0  0  0  0  0  0  0  0  0  0  0  0
   -1.4780    2.9593   -0.7086 C   0  0  0  0  0  0  0  0  0  0  0  0
   -1.8130    4.0029    0.1703 C   0  0  0  0  0  0  0  0  0  0  0  0
   -2.2165    3.7398    1.4781 C   0  0  0  0  0  0  0  0  0  0  0  0
   -2.2924    2.4277    1.9243 C   0  0  0  0  0  0  0  0  0  0  0  0
   -1.9546    1.3800    1.0650 C   0  0  0  0  0  0  0  0  0  0  0  0
   -1.5308    1.6134   -0.2645 C   0  0  0  0  0  0  0  0  0  0  0  0
   -0.1082   -1.6255   -0.3217 C   0  0  0  0  0  0  0  0  0  0  0  0
    1.8411    3.9349    3.5433 H   0  0  0  0  0  0  0  0  0  0  0  0
    0.9953    1.6621    4.0697 H   0  0  0  0  0  0  0  0  0  0  0  0
    0.9177   -0.0601    2.3348 H   0  0  0  0  0  0  0  0  0  0  0  0
    2.6269    4.4616    1.2726 H   0  0  0  0  0  0  0  0  0  0  0  0
    3.0846    3.7897   -1.0335 H   0  0  0  0  0  0  0  0  0  0  0  0
    3.0957    2.0851   -2.8069 H   0  0  0  0  0  0  0  0  0  0  0  0
    2.2431   -0.1845   -2.3584 H   0  0  0  0  0  0  0  0  0  0  0  0
    3.9813   -0.7121    0.4973 H   0  0  0  0  0  0  0  0  0  0  0  0
    5.6141   -2.3243    1.3009 H   0  0  0  0  0  0  0  0  0  0  0  0
    4.9536   -4.6846    1.7086 H   0  0  0  0  0  0  0  0  0  0  0  0
    2.6340   -5.3891    1.2982 H   0  0  0  0  0  0  0  0  0  0  0  0
    0.3971   -4.8978    0.6213 H   0  0  0  0  0  0  0  0  0  0  0  0
   -1.7671   -4.6237    0.0089 H   0  0  0  0  0  0  0  0  0  0  0  0
   -4.0742   -4.5427   -0.6077 H   0  0  0  0  0  0  0  0  0  0  0  0
   -6.0292   -3.3023   -1.4327 H   0  0  0  0  0  0  0  0  0  0  0  0
   -5.8134   -0.8912   -1.9912 H   0  0  0  0  0  0  0  0  0  0  0  0
   -3.6797    0.2458   -1.7265 H   0  0  0  0  0  0  0  0  0  0  0  0
   -0.5986    0.1113   -3.2101 H   0  0  0  0  0  0  0  0  0  0  0  0
   -0.5141    2.4622   -3.9460 H   0  0  0  0  0  0  0  0  0  0  0  0
   -1.0551    4.2764   -2.3749 H   0  0  0  0  0  0  0  0  0  0  0  0
   -1.7638    5.0373   -0.1620 H   0  0  0  0  0  0  0  0  0  0  0  0
   -2.4695    4.5586    2.1453 H   0  0  0  0  0  0  0  0  0  0  0  0
   -2.6043    2.2130    2.9424 H   0  0  0  0  0  0  0  0  0  0  0  0
   -2.0151    0.3648    1.4512 H   0  0  0  0  0  0  0  0  0  0  0  0
  1  2  4  0
  2  3  4  0
  3  4  4  0
  4  5  4  0
  5  6  4  0
  5  7  4  0
  7  8  4  0
  8  9  4  0
  9 10  4  0
 10 11  1  0
 11 12  4  0
 12 13  4  0
 13 14  4  0
 14 15  4  0
 15 16  4  0
 16 17  4  0
 17 18  4  0
 18 19  4  0
 19 20  4  0
 20 21  4  0
 21 22  4  0
 22 23  4  0
 23 24  4  0
 24 25  4  0
 25 26  4  0
 26 27  4  0
 27 28  1  0
 28 29  4  0
 29 30  4  0
 30 31  4  0
 31 32  4  0
 32 33  4  0
 33 34  4  0
 34 35  4  0
 35 36  4  0
 36 37  4  0
 27 38  4  0
  6  1  4  0
 38 11  4  0
 10  4  4  0
 17 12  4  0
 38 19  4  0
 26 21  4  0
 37 28  4  0
 37 32  4  0
  1 39  1  0
  2 40  1  0
  3 41  1  0
  6 42  1  0
  7 43  1  0
  8 44  1  0
  9 45  1  0
 13 46  1  0
 14 47  1  0
 15 48  1  0
 16 49  1  0
 18 50  1  0
 20 51  1  0
 22 52  1  0
 23 53  1  0
 24 54  1  0
 25 55  1  0
 29 56  1  0
 30 57  1  0
 31 58  1  0
 33 59  1  0
 34 60  1  0
 35 61  1  0
 36 62  1  0
M  END
