
     RDKit          3D

 62 69  0  0  0  0  0  0  0  0999 V2000
   -1.3860    4.9402    1.9129 C   0  0  0  0  0  0  0  0  0  0  0  0
   -1.6333    4.3218    0.6864 C   0  0  0  0  0  0  0  0  0  0  0  0
   -1.6061    2.9231    0.5695 C   0  0  0  0  0  0  0  0  0  0  0  0
   -1.8557    2.2877   -0.6555 C   0  0  0  0  0  0  0  0  0  0  0  0
   -1.7874    0.8963   -0.7646 C   0  0  0  0  0  0  0  0  0  0  0  0
   -1.4527    0.1069    0.3447 C   0  0  0  0  0  0  0  0  0  0  0  0
   -1.4116   -1.3691    0.2365 C   0  0  0  0  0  0  0  0  0  0  0  0
   -2.6555   -2.0605    0.4981 C   0  0  0  0  0  0  0  0  0  0  0  0
   -3.8789   -1.4238    0.8481 C   0  0  0  0  0  0  0  0  0  0  0  0
   -5.0556   -2.1366    1.0938 C   0  0  0  0  0  0  0  0  0  0  0  0
   -5.0529   -3.5178    0.9972 C   0  0  0  0  0  0  0  0  0  0  0  0
   -3.8750   -4.1751    0.6551 C   0  0  0  0  0  0  0  0  0  0  0  0
   -2.6876   -3.4609    0.4068 C   0  0  0  0  0  0  0  0  0  0  0  0
   -1.5256   -4.1472    0.0639 C   0  0  0  0  0  0  0  0  0  0  0  0
   -0.3113   -3.4984   -0.1941 C   0  0  0  0  0  0  0  0  0  0  0  0
    0.7705   -4.3228   -0.5296 C   0  0  0  0  0  0  0  0  0  0  0  0
    2.0395   -3.8225   -0.8090 C   0  0  0  0  0  0  0  0  0  0  0  0
    3.0837   -4.7068   -1.1402 C   0  0  0  0  0  0  0  0  0  0  0  0
    4.3630   -4.2371   -1.4218 C   0  0  0  0  0  0  0  0  0  0  0  0
    4.6118   -2.8758   -1.3745 C   0  0  0  0  0  0  0  0  0  0  0  0
    3.5781   -1.9946   -1.0459 C   0  0  0  0  0  0  0  0  0  0  0  0
    2.2580   -2.4368   -0.7530 C   0  0  0  0  0  0  0  0  0  0  0  0
    1.1551   -1.5664   -0.4079 C   0  0  0  0  0  0  0  0  0  0  0  0
    1.4609   -0.1189   -0.3541 C   0  0  0  0  0  0  0  0  0  0  0  0
    1.9250    0.4687    0.8312 C   0  0  0  0  0  0  0  0  0  0  0  0
    2.2404    1.8288    0.8771 C   0  0  0  0  0  0  0  0  0  0  0  0
    2.1097    2.6325   -0.2644 C   0  0  0  0  0  0  0  0  0  0  0  0
    2.3804    4.0090   -0.2222 C   0  0  0  0  0  0  0  0  0  0  0  0
    2.2361    4.7996   -1.3629 C   0  0  0  0  0  0  0  0  0  0  0  0
    1.8324    4.2220   -2.5631 C   0  0  0  0  0  0  0  0  0  0  0  0
    1.5608    2.8542   -2.6217 C   0  0  0  0  0  0  0  0  0  0  0  0
    1.6856    2.0477   -1.4786 C   0  0  0  0  0  0  0  0  0  0  0  0
    1.3792    0.6764   -1.5106 C   0  0  0  0  0  0  0  0  0  0  0  0
   -0.1842   -2.0875   -0.1191 C   0  0  0  0  0  0  0  0  0  0  0  0
   -1.2491    0.7412    1.5826 C   0  0  0  0  0  0  0  0  0  0  0  0
   -1.3122    2.1396    1.7077 C   0  0  0  0  0  0  0  0  0  0  0  0
   -1.0730    2.7766    2.9361 C   0  0  0  0  0  0  0  0  0  0  0  0
   -1.1102    4.1682    3.0375 C   0  0  0  0  0  0  0  0  0  0  0  0
   -1.4044    6.0240    1.9858 H   0  0  0  0  0  0  0  0  0  0  0  0
   -1.8331    4.9403   -0.1856 H   0  0  0  0  0  0  0  0  0  0  0  0
   -2.0870    2.8732   -1.5418 H   0  0  0  0  0  0  0  0  0  0  0  0
   -1.9796    0.4276   -1.7270 H   0  0  0  0  0  0  0  0  0  0  0  0
   -3.9305   -0.3395    0.9353 H   0  0  0  0  0  0  0  0  0  0  0  0
   -5.9660   -1.6058    1.3589 H   0  0  0  0  0  0  0  0  0  0  0  0
   -5.9609   -4.0835    1.1857 H   0  0  0  0  0  0  0  0  0  0  0  0
   -3.8896   -5.2608    0.5826 H   0  0  0  0  0  0  0  0  0  0  0  0
   -1.5720   -5.2346   -0.0038 H   0  0  0  0  0  0  0  0  0  0  0  0
    0.6218   -5.4021   -0.5760 H   0  0  0  0  0  0  0  0  0  0  0  0
    2.9046   -5.7794   -1.1806 H   0  0  0  0  0  0  0  0  0  0  0  0
    5.1583   -4.9318   -1.6755 H   0  0  0  0  0  0  0  0  0  0  0  0
    5.6044   -2.4902   -1.5905 H   0  0  0  0  0  0  0  0  0  0  0  0
    3.8229   -0.9340   -1.0213 H   0  0  0  0  0  0  0  0  0  0  0  0
    2.0260   -0.1320    1.7323 H   0  0  0  0  0  0  0  0  0  0  0  0
    2.5681    2.2604    1.8195 H   0  0  0  0  0  0  0  0  0  0  0  0
    2.6922    4.4768    0.7085 H   0  0  0  0  0  0  0  0  0  0  0  0
    2.4342    5.8663   -1.3101 H   0  0  0  0  0  0  0  0  0  0  0  0
    1.7207    4.8367   -3.4521 H   0  0  0  0  0  0  0  0  0  0  0  0
    1.2369    2.4212   -3.5652 H   0  0  0  0  0  0  0  0  0  0  0  0
    1.0495    0.2182   -2.4411 H   0  0  0  0  0  0  0  0  0  0  0  0
   -1.0204    0.1308    2.4543 H   0  0  0  0  0  0  0  0  0  0  0  0
   -0.8453    2.1889    3.8224 H   0  0  0  0  0  0  0  0  0  0  0  0
   -0.9172    4.6476    3.9930 H   0  0  0  0  0  0  0  0  0  0  0  0
  1  2  4  0
  2  3  4  0
  3  4  4  0
  4  5  4  0
  5  6  4  0
  6  7  1  0
  7  8  4  0
  8  9  4  0
  9 10  4  0
 10 11  4  0
 11 12  4  0
 12 13  4  0
 13 14  4  0
 14 15  4  0
 15 16  4  0
 16 17  4  0
 17 18  4  0
 18 19  4  0
 19 20  4  0
 20 21  4  0
 21 22  4  0
 22 23  4  0
 23 24  1  0
 24 25  4  0
 25 26  4  0
 26 27  4  0
 27 28  4  0
 28 29  4  0
 29 30  4  0
 30 31  4  0
 31 32  4  0
 32 33  4  0
 23 34  4  0
  6 35  4  0
 35 36  4  0
 36 37  4  0
 37 38  4  0
 38  1  4  0
 36  3  4  0
 34  7  4  0
 13  8  4  0
 34 15  4  0
 22 17  4  0
 33 24  4  0
 32 27  4  0
  1 39  1  0
  2 40  1  0
  4 41  1  0
  5 42  1  0
  9 43  1  0
 10 44  1  0
 11 45  1  0
 12 46  1  0
 14 47  1  0
 16 48  1  0
 18 49  1  0
 19 50  1  0
 20 51  1  0
 21 52  1  0
 25 53  1  0
 26 54  1  0
 28 55  1  0
 29 56  1  0
 30 57  1  0
 31 58  1  0
 33 59  1  0
 35 60  1  0
 37 61  1  0
 38 62  1  0
M  END
