
     RDKit          3D

 74 83  0  0  0  0  0  0  0  0999 V2000
    3.2276    5.8353   -0.9264 C   0  0  0  0  0  0  0  0  0  0  0  0
    2.4060    5.6007   -2.0244 C   0  0  0  0  0  0  0  0  0  0  0  0
    1.8699    4.3292   -2.2351 C   0  0  0  0  0  0  0  0  0  0  0  0
    2.1480    3.2753   -1.3493 C   0  0  0  0  0  0  0  0  0  0  0  0
    1.6138    1.9908   -1.5466 C   0  0  0  0  0  0  0  0  0  0  0  0
    1.8825    0.9402   -0.6533 C   0  0  0  0  0  0  0  0  0  0  0  0
    1.3335   -0.3425   -0.8387 C   0  0  0  0  0  0  0  0  0  0  0  0
    1.5576   -1.3731    0.0883 C   0  0  0  0  0  0  0  0  0  0  0  0
    1.0160   -2.7382   -0.1083 C   0  0  0  0  0  0  0  0  0  0  0  0
    1.8426   -3.6527   -0.8626 C   0  0  0  0  0  0  0  0  0  0  0  0
    3.0349   -3.2884   -1.5467 C   0  0  0  0  0  0  0  0  0  0  0  0
    3.8030   -4.2113   -2.2615 C   0  0  0  0  0  0  0  0  0  0  0  0
    3.4087   -5.5378   -2.3135 C   0  0  0  0  0  0  0  0  0  0  0  0
    2.2521   -5.9327   -1.6476 C   0  0  0  0  0  0  0  0  0  0  0  0
    1.4746   -5.0066   -0.9271 C   0  0  0  0  0  0  0  0  0  0  0  0
    0.3380   -5.4365   -0.2460 C   0  0  0  0  0  0  0  0  0  0  0  0
   -0.4861   -4.5629    0.4748 C   0  0  0  0  0  0  0  0  0  0  0  0
   -1.5839   -5.1350    1.1305 C   0  0  0  0  0  0  0  0  0  0  0  0
   -2.4987   -4.3806    1.8620 C   0  0  0  0  0  0  0  0  0  0  0  0
   -3.5734   -5.0176    2.5106 C   0  0  0  0  0  0  0  0  0  0  0  0
   -4.5207   -4.2859    3.2208 C   0  0  0  0  0  0  0  0  0  0  0  0
   -4.4058   -2.9072    3.2855 C   0  0  0  0  0  0  0  0  0  0  0  0
   -3.3403   -2.2706    2.6437 C   0  0  0  0  0  0  0  0  0  0  0  0
   -2.3474   -2.9853    1.9189 C   0  0  0  0  0  0  0  0  0  0  0  0
   -1.2283   -2.3750    1.2385 C   0  0  0  0  0  0  0  0  0  0  0  0
   -1.2226   -0.8957    1.1756 C   0  0  0  0  0  0  0  0  0  0  0  0
   -1.8623   -0.2462    0.1039 C   0  0  0  0  0  0  0  0  0  0  0  0
   -1.9069    1.1541    0.0136 C   0  0  0  0  0  0  0  0  0  0  0  0
   -2.5303    1.7948   -1.0694 C   0  0  0  0  0  0  0  0  0  0  0  0
   -2.5497    3.1943   -1.1765 C   0  0  0  0  0  0  0  0  0  0  0  0
   -3.1714    3.8369   -2.2599 C   0  0  0  0  0  0  0  0  0  0  0  0
   -3.1753    5.2291   -2.3576 C   0  0  0  0  0  0  0  0  0  0  0  0
   -2.5588    5.9962   -1.3739 C   0  0  0  0  0  0  0  0  0  0  0  0
   -1.9383    5.3717   -0.2905 C   0  0  0  0  0  0  0  0  0  0  0  0
   -1.9279    3.9716   -0.1761 C   0  0  0  0  0  0  0  0  0  0  0  0
   -1.3136    3.3287    0.9121 C   0  0  0  0  0  0  0  0  0  0  0  0
   -1.3021    1.9287    1.0240 C   0  0  0  0  0  0  0  0  0  0  0  0
   -0.6954    1.2825    2.1133 C   0  0  0  0  0  0  0  0  0  0  0  0
   -0.6658   -0.1132    2.1941 C   0  0  0  0  0  0  0  0  0  0  0  0
   -0.2226   -3.1720    0.5375 C   0  0  0  0  0  0  0  0  0  0  0  0
    2.3935   -1.1144    1.1860 C   0  0  0  0  0  0  0  0  0  0  0  0
    2.9641    0.1460    1.3706 C   0  0  0  0  0  0  0  0  0  0  0  0
    2.7086    1.1842    0.4645 C   0  0  0  0  0  0  0  0  0  0  0  0
    3.2522    2.4641    0.6564 C   0  0  0  0  0  0  0  0  0  0  0  0
    2.9796    3.5143   -0.2345 C   0  0  0  0  0  0  0  0  0  0  0  0
    3.5132    4.7986   -0.0369 C   0  0  0  0  0  0  0  0  0  0  0  0
    3.6454    6.8247   -0.7603 H   0  0  0  0  0  0  0  0  0  0  0  0
    2.1797    6.4060   -2.7179 H   0  0  0  0  0  0  0  0  0  0  0  0
    1.2298    4.1654   -3.0988 H   0  0  0  0  0  0  0  0  0  0  0  0
    0.9585    1.8126   -2.3972 H   0  0  0  0  0  0  0  0  0  0  0  0
    0.7015   -0.5382   -1.7028 H   0  0  0  0  0  0  0  0  0  0  0  0
    3.3852   -2.2577   -1.5344 H   0  0  0  0  0  0  0  0  0  0  0  0
    4.7050   -3.8852   -2.7722 H   0  0  0  0  0  0  0  0  0  0  0  0
    3.9986   -6.2642   -2.8648 H   0  0  0  0  0  0  0  0  0  0  0  0
    1.9605   -6.9802   -1.6913 H   0  0  0  0  0  0  0  0  0  0  0  0
    0.0846   -6.4965   -0.2830 H   0  0  0  0  0  0  0  0  0  0  0  0
   -1.7346   -6.2135    1.0724 H   0  0  0  0  0  0  0  0  0  0  0  0
   -3.6833   -6.0992    2.4616 H   0  0  0  0  0  0  0  0  0  0  0  0
   -5.3455   -4.7915    3.7146 H   0  0  0  0  0  0  0  0  0  0  0  0
   -5.1394   -2.3195    3.8306 H   0  0  0  0  0  0  0  0  0  0  0  0
   -3.2934   -1.1857    2.7207 H   0  0  0  0  0  0  0  0  0  0  0  0
   -2.3226   -0.8510   -0.6759 H   0  0  0  0  0  0  0  0  0  0  0  0
   -3.0024    1.1938   -1.8442 H   0  0  0  0  0  0  0  0  0  0  0  0
   -3.6603    3.2545   -3.0379 H   0  0  0  0  0  0  0  0  0  0  0  0
   -3.6584    5.7120   -3.2025 H   0  0  0  0  0  0  0  0  0  0  0  0
   -2.5599    7.0805   -1.4483 H   0  0  0  0  0  0  0  0  0  0  0  0
   -1.4607    5.9869    0.4685 H   0  0  0  0  0  0  0  0  0  0  0  0
   -0.8250    3.9282    1.6776 H   0  0  0  0  0  0  0  0  0  0  0  0
   -0.2235    1.8632    2.9021 H   0  0  0  0  0  0  0  0  0  0  0  0
   -0.1850   -0.5885    3.0456 H   0  0  0  0  0  0  0  0  0  0  0  0
    2.6045   -1.9037    1.9046 H   0  0  0  0  0  0  0  0  0  0  0  0
    3.6014    0.3117    2.2356 H   0  0  0  0  0  0  0  0  0  0  0  0
    3.8901    2.6480    1.5183 H   0  0  0  0  0  0  0  0  0  0  0  0
    4.1570    5.0018    0.8159 H   0  0  0  0  0  0  0  0  0  0  0  0
  1  2  4  0
  2  3  4  0
  3  4  4  0
  4  5  4  0
  5  6  4  0
  6  7  4  0
  7  8  4  0
  8  9  1  0
  9 10  4  0
 10 11  4  0
 11 12  4  0
 12 13  4  0
 13 14  4  0
 14 15  4  0
 15 16  4  0
 16 17  4  0
 17 18  4  0
 18 19  4  0
 19 20  4  0
 20 21  4  0
 21 22  4  0
 22 23  4  0
 23 24  4  0
 24 25  4  0
 25 26  1  0
 26 27  4  0
 27 28  4  0
 28 29  4  0
 29 30  4  0
 30 31  4  0
 31 32  4  0
 32 33  4  0
 33 34  4  0
 34 35  4  0
 35 36  4  0
 36 37  4  0
 37 38  4  0
 38 39  4  0
 25 40  4  0
  8 41  4  0
 41 42  4  0
 42 43  4  0
 43 44  4  0
 44 45  4  0
 45 46  4  0
 46  1  4  0
 45  4  4  0
 43  6  4  0
 40  9  4  0
 15 10  4  0
 40 17  4  0
 24 19  4  0
 39 26  4  0
 37 28  4  0
 35 30  4  0
  1 47  1  0
  2 48  1  0
  3 49  1  0
  5 50  1  0
  7 51  1  0
 11 52  1  0
 12 53  1  0
 13 54  1  0
 14 55  1  0
 16 56  1  0
 18 57  1  0
 20 58  1  0
 21 59  1  0
 22 60  1  0
 23 61  1  0
 27 62  1  0
 29 63  1  0
 31 64  1  0
 32 65  1  0
 33 66  1  0
 34 67  1  0
 36 68  1  0
 38 69  1  0
 39 70  1  0
 41 71  1  0
 42 72  1  0
 44 73  1  0
 46 74  1  0
M  END
