
     RDKit          3D

 74 83  0  0  0  0  0  0  0  0999 V2000
   -0.4937   -2.4931    4.0596 C   0  0  0  0  0  0  0  0  0  0  0  0
   -0.3463   -1.1147    4.0506 C   0  0  0  0  0  0  0  0  0  0  0  0
   -0.6496   -0.3915    2.8947 C   0  0  0  0  0  0  0  0  0  0  0  0
   -1.1121   -1.0205    1.7123 C   0  0  0  0  0  0  0  0  0  0  0  0
   -1.2797   -2.4227    1.7536 C   0  0  0  0  0  0  0  0  0  0  0  0
   -0.9581   -3.1420    2.9180 C   0  0  0  0  0  0  0  0  0  0  0  0
   -1.7852   -3.0968    0.6362 C   0  0  0  0  0  0  0  0  0  0  0  0
   -2.1797   -2.4168   -0.5215 C   0  0  0  0  0  0  0  0  0  0  0  0
   -2.7444   -3.1299   -1.5940 C   0  0  0  0  0  0  0  0  0  0  0  0
   -3.1857   -2.4757   -2.7419 C   0  0  0  0  0  0  0  0  0  0  0  0
   -3.0653   -1.0976   -2.8322 C   0  0  0  0  0  0  0  0  0  0  0  0
   -2.4919   -0.3807   -1.7792 C   0  0  0  0  0  0  0  0  0  0  0  0
   -2.0248   -1.0150   -0.5998 C   0  0  0  0  0  0  0  0  0  0  0  0
   -1.4348   -0.3155    0.5062 C   0  0  0  0  0  0  0  0  0  0  0  0
   -1.2947    1.1739    0.4464 C   0  0  0  0  0  0  0  0  0  0  0  0
   -2.4439    1.9331    0.9021 C   0  0  0  0  0  0  0  0  0  0  0  0
   -3.6367    1.3646    1.4304 C   0  0  0  0  0  0  0  0  0  0  0  0
   -4.7183    2.1402    1.8572 C   0  0  0  0  0  0  0  0  0  0  0  0
   -4.6488    3.5201    1.7695 C   0  0  0  0  0  0  0  0  0  0  0  0
   -3.4998    4.1120    1.2535 C   0  0  0  0  0  0  0  0  0  0  0  0
   -2.4083    3.3330    0.8227 C   0  0  0  0  0  0  0  0  0  0  0  0
   -1.2770    3.9537    0.3008 C   0  0  0  0  0  0  0  0  0  0  0  0
   -0.1540    3.2420   -0.1409 C   0  0  0  0  0  0  0  0  0  0  0  0
    0.8988    4.0155   -0.6466 C   0  0  0  0  0  0  0  0  0  0  0  0
    2.0858    3.4613   -1.1172 C   0  0  0  0  0  0  0  0  0  0  0  0
    3.1009    4.2997   -1.6173 C   0  0  0  0  0  0  0  0  0  0  0  0
    4.3030    3.7765   -2.0843 C   0  0  0  0  0  0  0  0  0  0  0  0
    4.5027    2.4069   -2.0532 C   0  0  0  0  0  0  0  0  0  0  0  0
    3.4971    1.5724   -1.5575 C   0  0  0  0  0  0  0  0  0  0  0  0
    2.2535    2.0694   -1.0758 C   0  0  0  0  0  0  0  0  0  0  0  0
    1.1791    1.2475   -0.5522 C   0  0  0  0  0  0  0  0  0  0  0  0
    1.4593   -0.2216   -0.4834 C   0  0  0  0  0  0  0  0  0  0  0  0
    1.2099   -1.0558   -1.6225 C   0  0  0  0  0  0  0  0  0  0  0  0
    0.6967   -0.5782   -2.8540 C   0  0  0  0  0  0  0  0  0  0  0  0
    0.4692   -1.4243   -3.9419 C   0  0  0  0  0  0  0  0  0  0  0  0
    0.7444   -2.7785   -3.8310 C   0  0  0  0  0  0  0  0  0  0  0  0
    1.2608   -3.2793   -2.6384 C   0  0  0  0  0  0  0  0  0  0  0  0
    1.5082   -2.4345   -1.5422 C   0  0  0  0  0  0  0  0  0  0  0  0
    2.0698   -2.9586   -0.3724 C   0  0  0  0  0  0  0  0  0  0  0  0
    2.3943   -2.1463    0.7199 C   0  0  0  0  0  0  0  0  0  0  0  0
    3.0192   -2.7072    1.8478 C   0  0  0  0  0  0  0  0  0  0  0  0
    3.3944   -1.9171    2.9320 C   0  0  0  0  0  0  0  0  0  0  0  0
    3.1457   -0.5536    2.9025 C   0  0  0  0  0  0  0  0  0  0  0  0
    2.5105    0.0119    1.7941 C   0  0  0  0  0  0  0  0  0  0  0  0
    2.1084   -0.7637    0.6766 C   0  0  0  0  0  0  0  0  0  0  0  0
   -0.0870    1.8262   -0.0796 C   0  0  0  0  0  0  0  0  0  0  0  0
   -0.2491   -3.0632    4.9508 H   0  0  0  0  0  0  0  0  0  0  0  0
    0.0173   -0.5957    4.9327 H   0  0  0  0  0  0  0  0  0  0  0  0
   -0.5089    0.6869    2.9244 H   0  0  0  0  0  0  0  0  0  0  0  0
   -1.0759   -4.2229    2.9460 H   0  0  0  0  0  0  0  0  0  0  0  0
   -1.9042   -4.1780    0.6802 H   0  0  0  0  0  0  0  0  0  0  0  0
   -2.8523   -4.2107   -1.5376 H   0  0  0  0  0  0  0  0  0  0  0  0
   -3.6220   -3.0422   -3.5594 H   0  0  0  0  0  0  0  0  0  0  0  0
   -3.4055   -0.5744   -3.7210 H   0  0  0  0  0  0  0  0  0  0  0  0
   -2.4075    0.6980   -1.8934 H   0  0  0  0  0  0  0  0  0  0  0  0
   -3.7404    0.2843    1.5193 H   0  0  0  0  0  0  0  0  0  0  0  0
   -5.6070    1.6573    2.2542 H   0  0  0  0  0  0  0  0  0  0  0  0
   -5.4828    4.1341    2.0973 H   0  0  0  0  0  0  0  0  0  0  0  0
   -3.4613    5.1975    1.1868 H   0  0  0  0  0  0  0  0  0  0  0  0
   -1.2740    5.0425    0.2374 H   0  0  0  0  0  0  0  0  0  0  0  0
    0.7931    5.1006   -0.6773 H   0  0  0  0  0  0  0  0  0  0  0  0
    2.9599    5.3783   -1.6442 H   0  0  0  0  0  0  0  0  0  0  0  0
    5.0768    4.4357   -2.4667 H   0  0  0  0  0  0  0  0  0  0  0  0
    5.4348    1.9779   -2.4105 H   0  0  0  0  0  0  0  0  0  0  0  0
    3.7024    0.5030   -1.5535 H   0  0  0  0  0  0  0  0  0  0  0  0
    0.4563    0.4757   -2.9771 H   0  0  0  0  0  0  0  0  0  0  0  0
    0.0647   -1.0204   -4.8655 H   0  0  0  0  0  0  0  0  0  0  0  0
    0.5597   -3.4444   -4.6687 H   0  0  0  0  0  0  0  0  0  0  0  0
    1.4786   -4.3428   -2.5721 H   0  0  0  0  0  0  0  0  0  0  0  0
    2.2906   -4.0235   -0.3231 H   0  0  0  0  0  0  0  0  0  0  0  0
    3.2268   -3.7742    1.8851 H   0  0  0  0  0  0  0  0  0  0  0  0
    3.8791   -2.3670    3.7934 H   0  0  0  0  0  0  0  0  0  0  0  0
    3.4335    0.0746    3.7404 H   0  0  0  0  0  0  0  0  0  0  0  0
    2.3253    1.0839    1.8143 H   0  0  0  0  0  0  0  0  0  0  0  0
  1  2  4  0
  2  3  4  0
  3  4  4  0
  4  5  4  0
  5  6  4  0
  5  7  4  0
  7  8  4  0
  8  9  4  0
  9 10  4  0
 10 11  4  0
 11 12  4  0
 12 13  4  0
 13 14  4  0
 14 15  1  0
 15 16  4  0
 16 17  4  0
 17 18  4  0
 18 19  4  0
 19 20  4  0
 20 21  4  0
 21 22  4  0
 22 23  4  0
 23 24  4  0
 24 25  4  0
 25 26  4  0
 26 27  4  0
 27 28  4  0
 28 29  4  0
 29 30  4  0
 30 31  4  0
 31 32  1  0
 32 33  4  0
 33 34  4  0
 34 35  4  0
 35 36  4  0
 36 37  4  0
 37 38  4  0
 38 39  4  0
 39 40  4  0
 40 41  4  0
 41 42  4  0
 42 43  4  0
 43 44  4  0
 44 45  4  0
 31 46  4  0
  6  1  4  0
 13  8  4  0
 46 15  4  0
 14  4  4  0
 21 16  4  0
 46 23  4  0
 30 25  4  0
 45 32  4  0
 38 33  4  0
 45 40  4  0
  1 47  1  0
  2 48  1  0
  3 49  1  0
  6 50  1  0
  7 51  1  0
  9 52  1  0
 10 53  1  0
 11 54  1  0
 12 55  1  0
 17 56  1  0
 18 57  1  0
 19 58  1  0
 20 59  1  0
 22 60  1  0
 24 61  1  0
 26 62  1  0
 27 63  1  0
 28 64  1  0
 29 65  1  0
 34 66  1  0
 35 67  1  0
 36 68  1  0
 37 69  1  0
 39 70  1  0
 41 71  1  0
 42 72  1  0
 43 73  1  0
 44 74  1  0
M  END
