
     RDKit          3D

 94107  0  0  0  0  0  0  0  0999 V2000
  -11.2170    2.4410   -1.1049 C   0  0  0  0  0  0  0  0  0  0  0  0
  -10.1235    2.9651   -0.4141 C   0  0  0  0  0  0  0  0  0  0  0  0
   -8.9102    2.2605   -0.3530 C   0  0  0  0  0  0  0  0  0  0  0  0
   -7.7973    2.7677    0.3345 C   0  0  0  0  0  0  0  0  0  0  0  0
   -6.5963    2.0727    0.3965 C   0  0  0  0  0  0  0  0  0  0  0  0
   -5.5562    2.6015    1.0671 N   0  0  0  0  0  0  0  0  0  0  0  0
   -4.4126    1.8902    1.1066 C   0  0  0  0  0  0  0  0  0  0  0  0
   -3.3157    2.3902    1.7949 C   0  0  0  0  0  0  0  0  0  0  0  0
   -2.1039    1.6860    1.8865 C   0  0  0  0  0  0  0  0  0  0  0  0
   -1.0287    2.2171    2.6152 C   0  0  0  0  0  0  0  0  0  0  0  0
    0.1674    1.5161    2.7406 C   0  0  0  0  0  0  0  0  0  0  0  0
    0.3079    0.2743    2.1308 C   0  0  0  0  0  0  0  0  0  0  0  0
   -0.7365   -0.2782    1.3654 C   0  0  0  0  0  0  0  0  0  0  0  0
   -0.5621   -1.6444    0.8021 C   0  0  0  0  0  0  0  0  0  0  0  0
   -0.9915   -2.7387    1.6476 C   0  0  0  0  0  0  0  0  0  0  0  0
   -1.4714   -2.5955    2.9794 C   0  0  0  0  0  0  0  0  0  0  0  0
   -1.8798   -3.6847    3.7540 C   0  0  0  0  0  0  0  0  0  0  0  0
   -1.8245   -4.9623    3.2233 C   0  0  0  0  0  0  0  0  0  0  0  0
   -1.3637   -5.1408    1.9225 C   0  0  0  0  0  0  0  0  0  0  0  0
   -0.9529   -4.0463    1.1387 C   0  0  0  0  0  0  0  0  0  0  0  0
   -0.5160   -4.2557   -0.1663 C   0  0  0  0  0  0  0  0  0  0  0  0
   -0.0840   -3.2133   -0.9954 C   0  0  0  0  0  0  0  0  0  0  0  0
    0.3123   -3.5761   -2.2885 C   0  0  0  0  0  0  0  0  0  0  0  0
    0.7756   -2.6512   -3.2200 C   0  0  0  0  0  0  0  0  0  0  0  0
    1.1453   -3.0810   -4.5084 C   0  0  0  0  0  0  0  0  0  0  0  0
    1.6280   -2.1836   -5.4559 C   0  0  0  0  0  0  0  0  0  0  0  0
    1.7488   -0.8452   -5.1226 C   0  0  0  0  0  0  0  0  0  0  0  0
    1.3837   -0.4147   -3.8441 C   0  0  0  0  0  0  0  0  0  0  0  0
    0.8815   -1.3010   -2.8510 C   0  0  0  0  0  0  0  0  0  0  0  0
    0.4943   -0.9075   -1.5124 C   0  0  0  0  0  0  0  0  0  0  0  0
    0.7501    0.5129   -1.1507 C   0  0  0  0  0  0  0  0  0  0  0  0
    2.0208    0.9443   -0.6530 C   0  0  0  0  0  0  0  0  0  0  0  0
    3.1063    0.0723   -0.3951 C   0  0  0  0  0  0  0  0  0  0  0  0
    4.3392    0.5144    0.0740 C   0  0  0  0  0  0  0  0  0  0  0  0
    5.3318   -0.3702    0.2908 N   0  0  0  0  0  0  0  0  0  0  0  0
    6.5087    0.1061    0.7360 C   0  0  0  0  0  0  0  0  0  0  0  0
    7.5592   -0.7722    0.9687 C   0  0  0  0  0  0  0  0  0  0  0  0
    8.8055   -0.3266    1.4341 C   0  0  0  0  0  0  0  0  0  0  0  0
    9.8661   -1.2167    1.6690 C   0  0  0  0  0  0  0  0  0  0  0  0
   11.0971   -0.7506    2.1326 C   0  0  0  0  0  0  0  0  0  0  0  0
   11.2825    0.6088    2.3668 C   0  0  0  0  0  0  0  0  0  0  0  0
   10.2372    1.5046    2.1378 C   0  0  0  0  0  0  0  0  0  0  0  0
    8.9930    1.0495    1.6709 C   0  0  0  0  0  0  0  0  0  0  0  0
    7.9274    1.9309    1.4332 C   0  0  0  0  0  0  0  0  0  0  0  0
    6.6960    1.4829    0.9723 C   0  0  0  0  0  0  0  0  0  0  0  0
    5.7033    2.3670    0.7605 N   0  0  0  0  0  0  0  0  0  0  0  0
    4.5266    1.8878    0.3112 C   0  0  0  0  0  0  0  0  0  0  0  0
    3.4737    2.7605    0.0712 C   0  0  0  0  0  0  0  0  0  0  0  0
    2.2293    2.3197   -0.4096 C   0  0  0  0  0  0  0  0  0  0  0  0
    1.1983    3.2384   -0.6591 C   0  0  0  0  0  0  0  0  0  0  0  0
   -0.0299    2.8184   -1.1623 C   0  0  0  0  0  0  0  0  0  0  0  0
   -0.2482    1.4688   -1.4165 C   0  0  0  0  0  0  0  0  0  0  0  0
   -0.0494   -1.8672   -0.5506 C   0  0  0  0  0  0  0  0  0  0  0  0
   -1.9744    0.4309    1.2518 C   0  0  0  0  0  0  0  0  0  0  0  0
   -3.1030   -0.0547    0.5471 C   0  0  0  0  0  0  0  0  0  0  0  0
   -4.3050    0.6421    0.4680 C   0  0  0  0  0  0  0  0  0  0  0  0
   -5.3449    0.1167   -0.2093 N   0  0  0  0  0  0  0  0  0  0  0  0
   -6.4896    0.8232   -0.2465 C   0  0  0  0  0  0  0  0  0  0  0  0
   -7.5869    0.3155   -0.9300 C   0  0  0  0  0  0  0  0  0  0  0  0
   -8.8029    1.0123   -0.9973 C   0  0  0  0  0  0  0  0  0  0  0  0
   -9.9112    0.4970   -1.6892 C   0  0  0  0  0  0  0  0  0  0  0  0
  -11.1109    1.2081   -1.7420 C   0  0  0  0  0  0  0  0  0  0  0  0
  -12.1508    2.9959   -1.1451 H   0  0  0  0  0  0  0  0  0  0  0  0
  -10.2256    3.9303    0.0778 H   0  0  0  0  0  0  0  0  0  0  0  0
   -7.8581    3.7298    0.8382 H   0  0  0  0  0  0  0  0  0  0  0  0
   -3.4221    3.3568    2.2838 H   0  0  0  0  0  0  0  0  0  0  0  0
   -1.1182    3.1857    3.1034 H   0  0  0  0  0  0  0  0  0  0  0  0
    0.9893    1.9352    3.3150 H   0  0  0  0  0  0  0  0  0  0  0  0
    1.2409   -0.2736    2.2504 H   0  0  0  0  0  0  0  0  0  0  0  0
   -1.5336   -1.6122    3.4418 H   0  0  0  0  0  0  0  0  0  0  0  0
   -2.2399   -3.5259    4.7669 H   0  0  0  0  0  0  0  0  0  0  0  0
   -2.1411   -5.8167    3.8144 H   0  0  0  0  0  0  0  0  0  0  0  0
   -1.3317   -6.1505    1.5180 H   0  0  0  0  0  0  0  0  0  0  0  0
   -0.5105   -5.2767   -0.5495 H   0  0  0  0  0  0  0  0  0  0  0  0
    0.2554   -4.6233   -2.5879 H   0  0  0  0  0  0  0  0  0  0  0  0
    1.0613   -4.1305   -4.7841 H   0  0  0  0  0  0  0  0  0  0  0  0
    1.9099   -2.5309   -6.4457 H   0  0  0  0  0  0  0  0  0  0  0  0
    2.1268   -0.1305   -5.8485 H   0  0  0  0  0  0  0  0  0  0  0  0
    1.4976    0.6466   -3.6309 H   0  0  0  0  0  0  0  0  0  0  0  0
    2.9989   -0.9972   -0.5684 H   0  0  0  0  0  0  0  0  0  0  0  0
    7.3922   -1.8306    0.7800 H   0  0  0  0  0  0  0  0  0  0  0  0
    9.7403   -2.2830    1.4920 H   0  0  0  0  0  0  0  0  0  0  0  0
   11.9104   -1.4496    2.3106 H   0  0  0  0  0  0  0  0  0  0  0  0
   12.2408    0.9731    2.7282 H   0  0  0  0  0  0  0  0  0  0  0  0
   10.4013    2.5635    2.3273 H   0  0  0  0  0  0  0  0  0  0  0  0
    8.0509    2.9971    1.6095 H   0  0  0  0  0  0  0  0  0  0  0  0
    3.6406    3.8195    0.2591 H   0  0  0  0  0  0  0  0  0  0  0  0
    1.3477    4.2995   -0.4691 H   0  0  0  0  0  0  0  0  0  0  0  0
   -0.8165    3.5422   -1.3579 H   0  0  0  0  0  0  0  0  0  0  0  0
   -1.2066    1.1534   -1.8255 H   0  0  0  0  0  0  0  0  0  0  0  0
   -3.0565   -1.0182    0.0421 H   0  0  0  0  0  0  0  0  0  0  0  0
   -7.4819   -0.6500   -1.4202 H   0  0  0  0  0  0  0  0  0  0  0  0
   -9.8465   -0.4649   -2.1937 H   0  0  0  0  0  0  0  0  0  0  0  0
  -11.9616    0.7987   -2.2809 H   0  0  0  0  0  0  0  0  0  0  0  0
  1  2  4  0
  2  3  4  0
  3  4  4  0
  4  5  4  0
  5  6  4  0
  6  7  4  0
  7  8  4  0
  8  9  4  0
  9 10  4  0
 10 11  4  0
 11 12  4  0
 12 13  4  0
 13 14  1  0
 14 15  4  0
 15 16  4  0
 16 17  4  0
 17 18  4  0
 18 19  4  0
 19 20  4  0
 20 21  4  0
 21 22  4  0
 22 23  4  0
 23 24  4  0
 24 25  4  0
 25 26  4  0
 26 27  4  0
 27 28  4  0
 28 29  4  0
 29 30  4  0
 30 31  1  0
 31 32  4  0
 32 33  4  0
 33 34  4  0
 34 35  4  0
 35 36  4  0
 36 37  4  0
 37 38  4  0
 38 39  4  0
 39 40  4  0
 40 41  4  0
 41 42  4  0
 42 43  4  0
 43 44  4  0
 44 45  4  0
 45 46  4  0
 46 47  4  0
 47 48  4  0
 48 49  4  0
 49 50  4  0
 50 51  4  0
 51 52  4  0
 30 53  4  0
 13 54  4  0
 54 55  4  0
 55 56  4  0
 56 57  4  0
 57 58  4  0
 58 59  4  0
 59 60  4  0
 60 61  4  0
 61 62  4  0
 62  1  4  0
 60  3  4  0
 58  5  4  0
 56  7  4  0
 54  9  4  0
 53 14  4  0
 20 15  4  0
 53 22  4  0
 29 24  4  0
 52 31  4  0
 49 32  4  0
 47 34  4  0
 45 36  4  0
 43 38  4  0
  1 63  1  0
  2 64  1  0
  4 65  1  0
  8 66  1  0
 10 67  1  0
 11 68  1  0
 12 69  1  0
 16 70  1  0
 17 71  1  0
 18 72  1  0
 19 73  1  0
 21 74  1  0
 23 75  1  0
 25 76  1  0
 26 77  1  0
 27 78  1  0
 28 79  1  0
 33 80  1  0
 37 81  1  0
 39 82  1  0
 40 83  1  0
 41 84  1  0
 42 85  1  0
 44 86  1  0
 48 87  1  0
 50 88  1  0
 51 89  1  0
 52 90  1  0
 55 91  1  0
 59 92  1  0
 61 93  1  0
 62 94  1  0
M  END
