
     RDKit          3D

 96107  0  0  0  0  0  0  0  0999 V2000
   -0.9542    1.6599   -1.6417 C   0  0  0  0  0  0  0  0  0  0  0  0
   -0.5857    2.3965   -0.4904 C   0  0  0  0  0  0  0  0  0  0  0  0
   -0.9014    2.0218    0.8770 C   0  0  0  0  0  0  0  0  0  0  0  0
   -0.4730    2.9281    1.9724 C   0  0  0  0  0  0  0  0  0  0  0  0
   -1.3985    3.9839    2.3200 C   0  0  0  0  0  0  0  0  0  0  0  0
   -2.6852    4.1573    1.7379 C   0  0  0  0  0  0  0  0  0  0  0  0
   -3.5461    5.1932    2.1099 C   0  0  0  0  0  0  0  0  0  0  0  0
   -3.1493    6.0990    3.0791 C   0  0  0  0  0  0  0  0  0  0  0  0
   -1.8947    5.9640    3.6667 C   0  0  0  0  0  0  0  0  0  0  0  0
   -1.0244    4.9215    3.2954 C   0  0  0  0  0  0  0  0  0  0  0  0
    0.2300    4.8182    3.8923 C   0  0  0  0  0  0  0  0  0  0  0  0
    1.1369    3.7978    3.5773 C   0  0  0  0  0  0  0  0  0  0  0  0
    2.3644    3.8274    4.2521 C   0  0  0  0  0  0  0  0  0  0  0  0
    3.3574    2.8716    4.0512 C   0  0  0  0  0  0  0  0  0  0  0  0
    4.5737    2.9648    4.7546 C   0  0  0  0  0  0  0  0  0  0  0  0
    5.5779    2.0157    4.5865 C   0  0  0  0  0  0  0  0  0  0  0  0
    5.3742    0.9597    3.7142 C   0  0  0  0  0  0  0  0  0  0  0  0
    4.1686    0.8635    3.0135 C   0  0  0  0  0  0  0  0  0  0  0  0
    3.1228    1.8177    3.1535 C   0  0  0  0  0  0  0  0  0  0  0  0
    1.8603    1.7656    2.4496 C   0  0  0  0  0  0  0  0  0  0  0  0
    1.6495    0.5848    1.5738 C   0  0  0  0  0  0  0  0  0  0  0  0
    2.1080    0.6293    0.2277 C   0  0  0  0  0  0  0  0  0  0  0  0
    1.8643   -0.5708   -0.4373 C   0  0  0  0  0  0  0  0  0  0  0  0
    2.1201   -0.8713   -1.7558 C   0  0  0  0  0  0  0  0  0  0  0  0
    2.7447   -0.2064   -2.8930 C   0  0  0  0  0  0  0  0  0  0  0  0
    2.2418   -0.3927   -4.1892 C   0  0  0  0  0  0  0  0  0  0  0  0
    2.8387    0.2331   -5.2864 C   0  0  0  0  0  0  0  0  0  0  0  0
    3.9514    1.0502   -5.1019 C   0  0  0  0  0  0  0  0  0  0  0  0
    4.4687    1.2390   -3.8223 C   0  0  0  0  0  0  0  0  0  0  0  0
    3.8692    0.6134   -2.7250 C   0  0  0  0  0  0  0  0  0  0  0  0
    1.6512   -2.1395   -2.0125 O   0  0  0  0  0  0  0  0  0  0  0  0
    1.1217   -2.6599   -0.8537 C   0  0  0  0  0  0  0  0  0  0  0  0
    0.5915   -4.0117   -0.9742 C   0  0  0  0  0  0  0  0  0  0  0  0
    0.7735   -4.9560    0.0448 C   0  0  0  0  0  0  0  0  0  0  0  0
    0.2551   -6.2484   -0.0789 C   0  0  0  0  0  0  0  0  0  0  0  0
   -0.4499   -6.6115   -1.2245 C   0  0  0  0  0  0  0  0  0  0  0  0
   -0.6350   -5.6854   -2.2482 C   0  0  0  0  0  0  0  0  0  0  0  0
   -0.1145   -4.3950   -2.1244 C   0  0  0  0  0  0  0  0  0  0  0  0
    1.2417   -1.7188    0.1431 C   0  0  0  0  0  0  0  0  0  0  0  0
    0.8006   -1.8111    1.4593 C   0  0  0  0  0  0  0  0  0  0  0  0
    1.0481   -0.6034    2.1540 C   0  0  0  0  0  0  0  0  0  0  0  0
    0.8292    2.7902    2.6282 C   0  0  0  0  0  0  0  0  0  0  0  0
   -1.6679    0.8667    1.1935 C   0  0  0  0  0  0  0  0  0  0  0  0
   -2.0129    0.1513    0.0491 C   0  0  0  0  0  0  0  0  0  0  0  0
   -2.6610   -1.0599   -0.0195 C   0  0  0  0  0  0  0  0  0  0  0  0
   -3.2395   -1.9982    0.9326 C   0  0  0  0  0  0  0  0  0  0  0  0
   -3.9737   -1.5491    2.0392 C   0  0  0  0  0  0  0  0  0  0  0  0
   -4.5044   -2.4581    2.9589 C   0  0  0  0  0  0  0  0  0  0  0  0
   -4.3099   -3.8266    2.7796 C   0  0  0  0  0  0  0  0  0  0  0  0
   -3.5906   -4.2875    1.6792 C   0  0  0  0  0  0  0  0  0  0  0  0
   -3.0620   -3.3784    0.7602 C   0  0  0  0  0  0  0  0  0  0  0  0
   -2.7393   -1.4403   -1.3392 O   0  0  0  0  0  0  0  0  0  0  0  0
   -2.1542   -0.4659   -2.1165 C   0  0  0  0  0  0  0  0  0  0  0  0
   -2.1872   -0.7201   -3.5522 C   0  0  0  0  0  0  0  0  0  0  0  0
   -2.3834    0.3228   -4.4681 C   0  0  0  0  0  0  0  0  0  0  0  0
   -2.4111    0.0715   -5.8431 C   0  0  0  0  0  0  0  0  0  0  0  0
   -2.2487   -1.2275   -6.3191 C   0  0  0  0  0  0  0  0  0  0  0  0
   -2.0641   -2.2765   -5.4218 C   0  0  0  0  0  0  0  0  0  0  0  0
   -2.0364   -2.0239   -4.0477 C   0  0  0  0  0  0  0  0  0  0  0  0
   -1.6763    0.5245   -1.2878 C   0  0  0  0  0  0  0  0  0  0  0  0
   -0.6623    1.9479   -2.6408 H   0  0  0  0  0  0  0  0  0  0  0  0
   -0.0051    3.3088   -0.6441 H   0  0  0  0  0  0  0  0  0  0  0  0
   -3.0416    3.4710    0.9717 H   0  0  0  0  0  0  0  0  0  0  0  0
   -4.5219    5.2831    1.6401 H   0  0  0  0  0  0  0  0  0  0  0  0
   -3.8100    6.9080    3.3772 H   0  0  0  0  0  0  0  0  0  0  0  0
   -1.5969    6.6860    4.4247 H   0  0  0  0  0  0  0  0  0  0  0  0
    0.5081    5.5647    4.6371 H   0  0  0  0  0  0  0  0  0  0  0  0
    2.5586    4.6287    4.9659 H   0  0  0  0  0  0  0  0  0  0  0  0
    4.7471    3.7861    5.4474 H   0  0  0  0  0  0  0  0  0  0  0  0
    6.5105    2.1013    5.1371 H   0  0  0  0  0  0  0  0  0  0  0  0
    6.1449    0.2067    3.5732 H   0  0  0  0  0  0  0  0  0  0  0  0
    4.0551    0.0142    2.3420 H   0  0  0  0  0  0  0  0  0  0  0  0
    2.5543    1.5109   -0.2099 H   0  0  0  0  0  0  0  0  0  0  0  0
    1.3763   -1.0313   -4.3523 H   0  0  0  0  0  0  0  0  0  0  0  0
    2.4355    0.0768   -6.2834 H   0  0  0  0  0  0  0  0  0  0  0  0
    4.4183    1.5347   -5.9553 H   0  0  0  0  0  0  0  0  0  0  0  0
    5.3431    1.8682   -3.6769 H   0  0  0  0  0  0  0  0  0  0  0  0
    4.3056    0.7574   -1.7399 H   0  0  0  0  0  0  0  0  0  0  0  0
    1.3374   -4.7013    0.9385 H   0  0  0  0  0  0  0  0  0  0  0  0
    0.4086   -6.9713    0.7177 H   0  0  0  0  0  0  0  0  0  0  0  0
   -0.8486   -7.6178   -1.3231 H   0  0  0  0  0  0  0  0  0  0  0  0
   -1.1806   -5.9658   -3.1455 H   0  0  0  0  0  0  0  0  0  0  0  0
   -0.2718   -3.6795   -2.9295 H   0  0  0  0  0  0  0  0  0  0  0  0
    0.3012   -2.6568    1.9087 H   0  0  0  0  0  0  0  0  0  0  0  0
    0.7396   -0.5555    3.2006 H   0  0  0  0  0  0  0  0  0  0  0  0
   -1.9009    0.5773    2.2083 H   0  0  0  0  0  0  0  0  0  0  0  0
   -4.1535   -0.4868    2.1893 H   0  0  0  0  0  0  0  0  0  0  0  0
   -5.0724   -2.0959    3.8120 H   0  0  0  0  0  0  0  0  0  0  0  0
   -4.7231   -4.5334    3.4943 H   0  0  0  0  0  0  0  0  0  0  0  0
   -3.4388   -5.3532    1.5309 H   0  0  0  0  0  0  0  0  0  0  0  0
   -2.5001   -3.7533   -0.0930 H   0  0  0  0  0  0  0  0  0  0  0  0
   -2.5397    1.3413   -4.1218 H   0  0  0  0  0  0  0  0  0  0  0  0
   -2.5671    0.8903   -6.5405 H   0  0  0  0  0  0  0  0  0  0  0  0
   -2.2732   -1.4237   -7.3876 H   0  0  0  0  0  0  0  0  0  0  0  0
   -1.9440   -3.2926   -5.7886 H   0  0  0  0  0  0  0  0  0  0  0  0
   -1.8932   -2.8551   -3.3604 H   0  0  0  0  0  0  0  0  0  0  0  0
  1  2  4  0
  2  3  4  0
  3  4  1  0
  4  5  4  0
  5  6  4  0
  6  7  4  0
  7  8  4  0
  8  9  4  0
  9 10  4  0
 10 11  4  0
 11 12  4  0
 12 13  4  0
 13 14  4  0
 14 15  4  0
 15 16  4  0
 16 17  4  0
 17 18  4  0
 18 19  4  0
 19 20  4  0
 20 21  1  0
 21 22  4  0
 22 23  4  0
 23 24  4  0
 24 25  1  0
 25 26  4  0
 26 27  4  0
 27 28  4  0
 28 29  4  0
 29 30  4  0
 24 31  4  0
 31 32  4  0
 32 33  1  0
 33 34  4  0
 34 35  4  0
 35 36  4  0
 36 37  4  0
 37 38  4  0
 32 39  4  0
 39 40  4  0
 40 41  4  0
 20 42  4  0
  3 43  4  0
 43 44  4  0
 44 45  4  0
 45 46  1  0
 46 47  4  0
 47 48  4  0
 48 49  4  0
 49 50  4  0
 50 51  4  0
 45 52  4  0
 52 53  4  0
 53 54  1  0
 54 55  4  0
 55 56  4  0
 56 57  4  0
 57 58  4  0
 58 59  4  0
 53 60  4  0
 60  1  4  0
 42  4  4  0
 60 44  4  0
 10  5  4  0
 42 12  4  0
 51 46  4  0
 59 54  4  0
 19 14  4  0
 41 21  4  0
 39 23  4  0
 30 25  4  0
 38 33  4  0
  1 61  1  0
  2 62  1  0
  6 63  1  0
  7 64  1  0
  8 65  1  0
  9 66  1  0
 11 67  1  0
 13 68  1  0
 15 69  1  0
 16 70  1  0
 17 71  1  0
 18 72  1  0
 22 73  1  0
 26 74  1  0
 27 75  1  0
 28 76  1  0
 29 77  1  0
 30 78  1  0
 34 79  1  0
 35 80  1  0
 36 81  1  0
 37 82  1  0
 38 83  1  0
 40 84  1  0
 41 85  1  0
 43 86  1  0
 47 87  1  0
 48 88  1  0
 49 89  1  0
 50 90  1  0
 51 91  1  0
 55 92  1  0
 56 93  1  0
 57 94  1  0
 58 95  1  0
 59 96  1  0
M  END
