
     RDKit          3D

 96107  0  0  0  0  0  0  0  0999 V2000
   -5.4173    0.1935   -4.0566 C   0  0  0  0  0  0  0  0  0  0  0  0
   -5.7815    1.2236   -3.1611 C   0  0  0  0  0  0  0  0  0  0  0  0
   -4.9758    1.2019   -2.0249 C   0  0  0  0  0  0  0  0  0  0  0  0
   -5.0134    2.0622   -0.9533 C   0  0  0  0  0  0  0  0  0  0  0  0
   -5.8237    3.1983   -0.5353 C   0  0  0  0  0  0  0  0  0  0  0  0
   -7.2126    3.2019   -0.7201 C   0  0  0  0  0  0  0  0  0  0  0  0
   -7.9828    4.2958   -0.3160 C   0  0  0  0  0  0  0  0  0  0  0  0
   -7.3725    5.3976    0.2796 C   0  0  0  0  0  0  0  0  0  0  0  0
   -5.9934    5.4055    0.4768 C   0  0  0  0  0  0  0  0  0  0  0  0
   -5.2245    4.3109    0.0741 C   0  0  0  0  0  0  0  0  0  0  0  0
   -4.0117    1.7136   -0.0809 O   0  0  0  0  0  0  0  0  0  0  0  0
   -3.3399    0.6153   -0.5756 C   0  0  0  0  0  0  0  0  0  0  0  0
   -2.2525    0.1380    0.2783 C   0  0  0  0  0  0  0  0  0  0  0  0
   -1.6031    1.0246    1.1524 C   0  0  0  0  0  0  0  0  0  0  0  0
   -0.5621    0.5961    1.9764 C   0  0  0  0  0  0  0  0  0  0  0  0
   -0.1472   -0.7324    1.9346 C   0  0  0  0  0  0  0  0  0  0  0  0
   -0.7663   -1.6468    1.0682 C   0  0  0  0  0  0  0  0  0  0  0  0
   -0.3790   -3.0765    1.0929 C   0  0  0  0  0  0  0  0  0  0  0  0
   -1.0842   -3.9077    2.0459 C   0  0  0  0  0  0  0  0  0  0  0  0
   -2.1229   -3.4535    2.9061 C   0  0  0  0  0  0  0  0  0  0  0  0
   -2.7732   -4.2952    3.8128 C   0  0  0  0  0  0  0  0  0  0  0  0
   -2.4067   -5.6280    3.8949 C   0  0  0  0  0  0  0  0  0  0  0  0
   -1.3933   -6.1081    3.0705 C   0  0  0  0  0  0  0  0  0  0  0  0
   -0.7360   -5.2634    2.1555 C   0  0  0  0  0  0  0  0  0  0  0  0
    0.2793   -5.7717    1.3495 C   0  0  0  0  0  0  0  0  0  0  0  0
    0.9713   -4.9868    0.4183 C   0  0  0  0  0  0  0  0  0  0  0  0
    1.9702   -5.6376   -0.3169 C   0  0  0  0  0  0  0  0  0  0  0  0
    2.7415   -4.9888   -1.2776 C   0  0  0  0  0  0  0  0  0  0  0  0
    3.7341   -5.7013   -1.9775 C   0  0  0  0  0  0  0  0  0  0  0  0
    4.5193   -5.0817   -2.9452 C   0  0  0  0  0  0  0  0  0  0  0  0
    4.3197   -3.7399   -3.2225 C   0  0  0  0  0  0  0  0  0  0  0  0
    3.3347   -3.0294   -2.5307 C   0  0  0  0  0  0  0  0  0  0  0  0
    2.5116   -3.6284   -1.5365 C   0  0  0  0  0  0  0  0  0  0  0  0
    1.4760   -2.9387   -0.7969 C   0  0  0  0  0  0  0  0  0  0  0  0
    1.2479   -1.5231   -1.1650 C   0  0  0  0  0  0  0  0  0  0  0  0
    0.3907   -1.1965   -2.2279 C   0  0  0  0  0  0  0  0  0  0  0  0
    0.2162    0.1301   -2.6201 C   0  0  0  0  0  0  0  0  0  0  0  0
    0.8979    1.1490   -1.9537 C   0  0  0  0  0  0  0  0  0  0  0  0
    1.7700    0.8544   -0.8980 C   0  0  0  0  0  0  0  0  0  0  0  0
    2.4613    1.9144   -0.1763 C   0  0  0  0  0  0  0  0  0  0  0  0
    2.1459    3.1726    0.2831 C   0  0  0  0  0  0  0  0  0  0  0  0
    0.9223    3.8329    0.1943 C   0  0  0  0  0  0  0  0  0  0  0  0
    0.9840    5.0936    0.8296 C   0  0  0  0  0  0  0  0  0  0  0  0
    2.1542    5.6104    1.4860 C   0  0  0  0  0  0  0  0  0  0  0  0
    3.3863    4.9217    1.5743 C   0  0  0  0  0  0  0  0  0  0  0  0
    3.3114    3.6866    0.9335 C   0  0  0  0  0  0  0  0  0  0  0  0
    4.2905    2.7237    0.8307 C   0  0  0  0  0  0  0  0  0  0  0  0
    5.6860    2.5849    1.2324 C   0  0  0  0  0  0  0  0  0  0  0  0
    6.5667    3.6746    1.1846 C   0  0  0  0  0  0  0  0  0  0  0  0
    7.9009    3.5346    1.5792 C   0  0  0  0  0  0  0  0  0  0  0  0
    8.3727    2.3005    2.0207 C   0  0  0  0  0  0  0  0  0  0  0  0
    7.5136    1.2050    2.0626 C   0  0  0  0  0  0  0  0  0  0  0  0
    6.1801    1.3466    1.6689 C   0  0  0  0  0  0  0  0  0  0  0  0
    3.7640    1.6360    0.1692 O   0  0  0  0  0  0  0  0  0  0  0  0
    1.9555   -0.4876   -0.5309 C   0  0  0  0  0  0  0  0  0  0  0  0
    0.6775   -3.6116    0.2305 C   0  0  0  0  0  0  0  0  0  0  0  0
   -1.8351   -1.2009    0.2660 C   0  0  0  0  0  0  0  0  0  0  0  0
   -3.9091    0.2752   -1.7854 C   0  0  0  0  0  0  0  0  0  0  0  0
   -3.5350   -0.7396   -2.6657 C   0  0  0  0  0  0  0  0  0  0  0  0
   -4.3505   -0.7394   -3.8211 C   0  0  0  0  0  0  0  0  0  0  0  0
   -5.9747    0.1023   -4.9899 H   0  0  0  0  0  0  0  0  0  0  0  0
   -6.5738    1.9292   -3.3662 H   0  0  0  0  0  0  0  0  0  0  0  0
   -7.7130    2.3436   -1.1619 H   0  0  0  0  0  0  0  0  0  0  0  0
   -9.0599    4.2830   -0.4602 H   0  0  0  0  0  0  0  0  0  0  0  0
   -7.9718    6.2473    0.5959 H   0  0  0  0  0  0  0  0  0  0  0  0
   -5.5171    6.2621    0.9461 H   0  0  0  0  0  0  0  0  0  0  0  0
   -4.1483    4.3295    0.2342 H   0  0  0  0  0  0  0  0  0  0  0  0
   -1.9049    2.0689    1.1972 H   0  0  0  0  0  0  0  0  0  0  0  0
   -0.0708    1.3003    2.6426 H   0  0  0  0  0  0  0  0  0  0  0  0
    0.6635   -1.0583    2.5828 H   0  0  0  0  0  0  0  0  0  0  0  0
   -2.4458   -2.4139    2.8805 H   0  0  0  0  0  0  0  0  0  0  0  0
   -3.5617   -3.9015    4.4485 H   0  0  0  0  0  0  0  0  0  0  0  0
   -2.9044   -6.2922    4.5956 H   0  0  0  0  0  0  0  0  0  0  0  0
   -1.1158   -7.1576    3.1482 H   0  0  0  0  0  0  0  0  0  0  0  0
    0.5402   -6.8257    1.4550 H   0  0  0  0  0  0  0  0  0  0  0  0
    2.1605   -6.6959   -0.1340 H   0  0  0  0  0  0  0  0  0  0  0  0
    3.9035   -6.7562   -1.7701 H   0  0  0  0  0  0  0  0  0  0  0  0
    5.2823   -5.6444   -3.4754 H   0  0  0  0  0  0  0  0  0  0  0  0
    4.9261   -3.2369   -3.9711 H   0  0  0  0  0  0  0  0  0  0  0  0
    3.2196   -1.9758   -2.7805 H   0  0  0  0  0  0  0  0  0  0  0  0
   -0.1383   -1.9852   -2.7581 H   0  0  0  0  0  0  0  0  0  0  0  0
   -0.4530    0.3718   -3.4415 H   0  0  0  0  0  0  0  0  0  0  0  0
    0.7484    2.1758   -2.2776 H   0  0  0  0  0  0  0  0  0  0  0  0
    0.0269    3.4501   -0.2737 H   0  0  0  0  0  0  0  0  0  0  0  0
    0.0860    5.7129    0.8322 H   0  0  0  0  0  0  0  0  0  0  0  0
    2.0802    6.5939    1.9526 H   0  0  0  0  0  0  0  0  0  0  0  0
    4.2460    5.3189    2.0941 H   0  0  0  0  0  0  0  0  0  0  0  0
    6.2302    4.6416    0.8197 H   0  0  0  0  0  0  0  0  0  0  0  0
    8.5726    4.3884    1.5345 H   0  0  0  0  0  0  0  0  0  0  0  0
    9.4105    2.1906    2.3247 H   0  0  0  0  0  0  0  0  0  0  0  0
    7.8778    0.2377    2.3987 H   0  0  0  0  0  0  0  0  0  0  0  0
    5.5229    0.4800    1.7076 H   0  0  0  0  0  0  0  0  0  0  0  0
    2.6424   -0.7330    0.2777 H   0  0  0  0  0  0  0  0  0  0  0  0
   -2.3496   -1.9295   -0.3541 H   0  0  0  0  0  0  0  0  0  0  0  0
   -2.7279   -1.4424   -2.5265 H   0  0  0  0  0  0  0  0  0  0  0  0
   -4.1570   -1.4906   -4.5883 H   0  0  0  0  0  0  0  0  0  0  0  0
  1  2  4  0
  2  3  4  0
  3  4  4  0
  4  5  1  0
  5  6  4  0
  6  7  4  0
  7  8  4  0
  8  9  4  0
  9 10  4  0
  4 11  4  0
 11 12  4  0
 12 13  1  0
 13 14  4  0
 14 15  4  0
 15 16  4  0
 16 17  4  0
 17 18  1  0
 18 19  4  0
 19 20  4  0
 20 21  4  0
 21 22  4  0
 22 23  4  0
 23 24  4  0
 24 25  4  0
 25 26  4  0
 26 27  4  0
 27 28  4  0
 28 29  4  0
 29 30  4  0
 30 31  4  0
 31 32  4  0
 32 33  4  0
 33 34  4  0
 34 35  1  0
 35 36  4  0
 36 37  4  0
 37 38  4  0
 38 39  4  0
 39 40  1  0
 40 41  4  0
 41 42  4  0
 42 43  4  0
 43 44  4  0
 44 45  4  0
 45 46  4  0
 46 47  4  0
 47 48  1  0
 48 49  4  0
 49 50  4  0
 50 51  4  0
 51 52  4  0
 52 53  4  0
 47 54  4  0
 39 55  4  0
 34 56  4  0
 17 57  4  0
 12 58  4  0
 58 59  4  0
 59 60  4  0
 60  1  4  0
 58  3  4  0
 10  5  4  0
 57 13  4  0
 56 18  4  0
 24 19  4  0
 56 26  4  0
 33 28  4  0
 55 35  4  0
 54 40  4  0
 46 41  4  0
 53 48  4  0
  1 61  1  0
  2 62  1  0
  6 63  1  0
  7 64  1  0
  8 65  1  0
  9 66  1  0
 10 67  1  0
 14 68  1  0
 15 69  1  0
 16 70  1  0
 20 71  1  0
 21 72  1  0
 22 73  1  0
 23 74  1  0
 25 75  1  0
 27 76  1  0
 29 77  1  0
 30 78  1  0
 31 79  1  0
 32 80  1  0
 36 81  1  0
 37 82  1  0
 38 83  1  0
 42 84  1  0
 43 85  1  0
 44 86  1  0
 45 87  1  0
 49 88  1  0
 50 89  1  0
 51 90  1  0
 52 91  1  0
 53 92  1  0
 55 93  1  0
 57 94  1  0
 59 95  1  0
 60 96  1  0
M  END
