
     RDKit          3D

 90103  0  0  0  0  0  0  0  0999 V2000
    6.0713   -3.7197   -7.8615 C   0  0  0  0  0  0  0  0  0  0  0  0
    7.1481   -2.9821   -7.3876 C   0  0  0  0  0  0  0  0  0  0  0  0
    7.0668   -2.3753   -6.1333 C   0  0  0  0  0  0  0  0  0  0  0  0
    5.9283   -2.4928   -5.3446 C   0  0  0  0  0  0  0  0  0  0  0  0
    5.8863   -1.8941   -4.1399 N   0  0  0  0  0  0  0  0  0  0  0  0
    4.7636   -2.0362   -3.4131 C   0  0  0  0  0  0  0  0  0  0  0  0
    4.6713   -1.4409   -2.1646 C   0  0  0  0  0  0  0  0  0  0  0  0
    3.5390   -1.5620   -1.3736 C   0  0  0  0  0  0  0  0  0  0  0  0
    3.5063   -0.9784   -0.1624 N   0  0  0  0  0  0  0  0  0  0  0  0
    2.3942   -1.1399    0.5790 C   0  0  0  0  0  0  0  0  0  0  0  0
    2.3301   -0.5881    1.8525 C   0  0  0  0  0  0  0  0  0  0  0  0
    1.2027   -0.7447    2.6784 C   0  0  0  0  0  0  0  0  0  0  0  0
    1.2365   -0.2514    4.0736 C   0  0  0  0  0  0  0  0  0  0  0  0
    1.7983   -1.1561    5.0563 C   0  0  0  0  0  0  0  0  0  0  0  0
    2.2154   -2.4903    4.7890 C   0  0  0  0  0  0  0  0  0  0  0  0
    2.7583   -3.3225    5.7728 C   0  0  0  0  0  0  0  0  0  0  0  0
    2.9066   -2.8502    7.0658 C   0  0  0  0  0  0  0  0  0  0  0  0
    2.5139   -1.5494    7.3651 C   0  0  0  0  0  0  0  0  0  0  0  0
    1.9669   -0.7082    6.3767 C   0  0  0  0  0  0  0  0  0  0  0  0
    1.6005    0.5943    6.7034 C   0  0  0  0  0  0  0  0  0  0  0  0
    1.0460    1.4802    5.7717 C   0  0  0  0  0  0  0  0  0  0  0  0
    0.7406    2.7626    6.2435 C   0  0  0  0  0  0  0  0  0  0  0  0
    0.1742    3.7447    5.4361 C   0  0  0  0  0  0  0  0  0  0  0  0
   -0.1011    5.0170    5.9722 C   0  0  0  0  0  0  0  0  0  0  0  0
   -0.6844    6.0143    5.1969 C   0  0  0  0  0  0  0  0  0  0  0  0
   -1.0003    5.7483    3.8756 C   0  0  0  0  0  0  0  0  0  0  0  0
   -0.7284    4.4865    3.3393 C   0  0  0  0  0  0  0  0  0  0  0  0
   -0.1293    3.4421    4.0990 C   0  0  0  0  0  0  0  0  0  0  0  0
    0.1677    2.1169    3.5942 C   0  0  0  0  0  0  0  0  0  0  0  0
   -0.2937    1.8322    2.2166 C   0  0  0  0  0  0  0  0  0  0  0  0
   -1.6157    1.4061    1.9966 C   0  0  0  0  0  0  0  0  0  0  0  0
   -2.1442    1.2742    0.7189 C   0  0  0  0  0  0  0  0  0  0  0  0
   -3.4289    0.9029    0.5660 N   0  0  0  0  0  0  0  0  0  0  0  0
   -3.9111    0.8305   -0.6862 C   0  0  0  0  0  0  0  0  0  0  0  0
   -5.2337    0.4725   -0.8929 C   0  0  0  0  0  0  0  0  0  0  0  0
   -5.7834    0.3984   -2.1625 C   0  0  0  0  0  0  0  0  0  0  0  0
   -7.0738    0.0523   -2.3097 N   0  0  0  0  0  0  0  0  0  0  0  0
   -7.5634   -0.0051   -3.5619 C   0  0  0  0  0  0  0  0  0  0  0  0
   -8.8919   -0.3579   -3.7662 C   0  0  0  0  0  0  0  0  0  0  0  0
   -9.4352   -0.4281   -5.0496 C   0  0  0  0  0  0  0  0  0  0  0  0
   -8.6360   -0.1404   -6.1481 C   0  0  0  0  0  0  0  0  0  0  0  0
   -7.3007    0.2148   -5.9529 C   0  0  0  0  0  0  0  0  0  0  0  0
   -6.7506    0.2876   -4.6787 C   0  0  0  0  0  0  0  0  0  0  0  0
   -5.4588    0.6338   -4.5280 N   0  0  0  0  0  0  0  0  0  0  0  0
   -4.9730    0.6905   -3.2762 C   0  0  0  0  0  0  0  0  0  0  0  0
   -3.6484    1.0414   -3.0689 C   0  0  0  0  0  0  0  0  0  0  0  0
   -3.0999    1.1216   -1.7986 C   0  0  0  0  0  0  0  0  0  0  0  0
   -1.8131    1.4819   -1.6487 N   0  0  0  0  0  0  0  0  0  0  0  0
   -1.3290    1.5623   -0.3954 C   0  0  0  0  0  0  0  0  0  0  0  0
   -0.0136    1.9594   -0.1864 C   0  0  0  0  0  0  0  0  0  0  0  0
    0.5036    2.1123    1.1028 C   0  0  0  0  0  0  0  0  0  0  0  0
    0.8073    1.1002    4.4263 C   0  0  0  0  0  0  0  0  0  0  0  0
    0.1208   -1.4797    2.1857 C   0  0  0  0  0  0  0  0  0  0  0  0
    0.1722   -2.0265    0.9005 C   0  0  0  0  0  0  0  0  0  0  0  0
    1.2949   -1.8786    0.0946 C   0  0  0  0  0  0  0  0  0  0  0  0
    1.3272   -2.4549   -1.1218 N   0  0  0  0  0  0  0  0  0  0  0  0
    2.4457   -2.3063   -1.8547 C   0  0  0  0  0  0  0  0  0  0  0  0
    2.5376   -2.9010   -3.1040 C   0  0  0  0  0  0  0  0  0  0  0  0
    3.6712   -2.7832   -3.8933 C   0  0  0  0  0  0  0  0  0  0  0  0
    3.7110   -3.3830   -5.0965 N   0  0  0  0  0  0  0  0  0  0  0  0
    4.8334   -3.2425   -5.8263 C   0  0  0  0  0  0  0  0  0  0  0  0
    4.9237   -3.8433   -7.0767 C   0  0  0  0  0  0  0  0  0  0  0  0
    6.1190   -4.1984   -8.8365 H   0  0  0  0  0  0  0  0  0  0  0  0
    8.0489   -2.8764   -7.9870 H   0  0  0  0  0  0  0  0  0  0  0  0
    7.9083   -1.7971   -5.7592 H   0  0  0  0  0  0  0  0  0  0  0  0
    5.5135   -0.8639   -1.7917 H   0  0  0  0  0  0  0  0  0  0  0  0
    3.1968   -0.0431    2.2240 H   0  0  0  0  0  0  0  0  0  0  0  0
    2.1201   -2.9105    3.7898 H   0  0  0  0  0  0  0  0  0  0  0  0
    3.0626   -4.3348    5.5203 H   0  0  0  0  0  0  0  0  0  0  0  0
    3.3287   -3.4871    7.8384 H   0  0  0  0  0  0  0  0  0  0  0  0
    2.6428   -1.1915    8.3851 H   0  0  0  0  0  0  0  0  0  0  0  0
    1.7534    0.9300    7.7295 H   0  0  0  0  0  0  0  0  0  0  0  0
    0.9533    3.0112    7.2840 H   0  0  0  0  0  0  0  0  0  0  0  0
    0.1367    5.2407    7.0105 H   0  0  0  0  0  0  0  0  0  0  0  0
   -0.8919    6.9905    5.6259 H   0  0  0  0  0  0  0  0  0  0  0  0
   -1.4589    6.5146    3.2563 H   0  0  0  0  0  0  0  0  0  0  0  0
   -0.9973    4.3295    2.2963 H   0  0  0  0  0  0  0  0  0  0  0  0
   -2.2658    1.2096    2.8479 H   0  0  0  0  0  0  0  0  0  0  0  0
   -5.8609    0.2505   -0.0330 H   0  0  0  0  0  0  0  0  0  0  0  0
   -9.5161   -0.5828   -2.9047 H   0  0  0  0  0  0  0  0  0  0  0  0
  -10.4770   -0.7062   -5.1850 H   0  0  0  0  0  0  0  0  0  0  0  0
   -9.0449   -0.1908   -7.1540 H   0  0  0  0  0  0  0  0  0  0  0  0
   -6.6729    0.4406   -6.8116 H   0  0  0  0  0  0  0  0  0  0  0  0
   -3.0182    1.2613   -3.9273 H   0  0  0  0  0  0  0  0  0  0  0  0
    0.6138    2.1812   -1.0465 H   0  0  0  0  0  0  0  0  0  0  0  0
    1.5225    2.4719    1.2343 H   0  0  0  0  0  0  0  0  0  0  0  0
   -0.7601   -1.6435    2.8034 H   0  0  0  0  0  0  0  0  0  0  0  0
   -0.6733   -2.5991    0.5273 H   0  0  0  0  0  0  0  0  0  0  0  0
    1.6977   -3.4831   -3.4755 H   0  0  0  0  0  0  0  0  0  0  0  0
    4.0792   -4.4204   -7.4458 H   0  0  0  0  0  0  0  0  0  0  0  0
  1  2  4  0
  2  3  4  0
  3  4  4  0
  4  5  4  0
  5  6  4  0
  6  7  4  0
  7  8  4  0
  8  9  4  0
  9 10  4  0
 10 11  4  0
 11 12  4  0
 12 13  1  0
 13 14  4  0
 14 15  4  0
 15 16  4  0
 16 17  4  0
 17 18  4  0
 18 19  4  0
 19 20  4  0
 20 21  4  0
 21 22  4  0
 22 23  4  0
 23 24  4  0
 24 25  4  0
 25 26  4  0
 26 27  4  0
 27 28  4  0
 28 29  4  0
 29 30  1  0
 30 31  4  0
 31 32  4  0
 32 33  4  0
 33 34  4  0
 34 35  4  0
 35 36  4  0
 36 37  4  0
 37 38  4  0
 38 39  4  0
 39 40  4  0
 40 41  4  0
 41 42  4  0
 42 43  4  0
 43 44  4  0
 44 45  4  0
 45 46  4  0
 46 47  4  0
 47 48  4  0
 48 49  4  0
 49 50  4  0
 50 51  4  0
 29 52  4  0
 12 53  4  0
 53 54  4  0
 54 55  4  0
 55 56  4  0
 56 57  4  0
 57 58  4  0
 58 59  4  0
 59 60  4  0
 60 61  4  0
 61 62  4  0
 62  1  4  0
 61  4  4  0
 59  6  4  0
 57  8  4  0
 55 10  4  0
 52 13  4  0
 19 14  4  0
 52 21  4  0
 28 23  4  0
 51 30  4  0
 49 32  4  0
 47 34  4  0
 45 36  4  0
 43 38  4  0
  1 63  1  0
  2 64  1  0
  3 65  1  0
  7 66  1  0
 11 67  1  0
 15 68  1  0
 16 69  1  0
 17 70  1  0
 18 71  1  0
 20 72  1  0
 22 73  1  0
 24 74  1  0
 25 75  1  0
 26 76  1  0
 27 77  1  0
 31 78  1  0
 35 79  1  0
 39 80  1  0
 40 81  1  0
 41 82  1  0
 42 83  1  0
 46 84  1  0
 50 85  1  0
 51 86  1  0
 53 87  1  0
 54 88  1  0
 58 89  1  0
 62 90  1  0
M  END
