
     RDKit          3D

 90103  0  0  0  0  0  0  0  0999 V2000
    4.3884    7.0924   -0.3708 C   0  0  0  0  0  0  0  0  0  0  0  0
    3.3632    6.5451    0.4016 C   0  0  0  0  0  0  0  0  0  0  0  0
    3.1739    5.1709    0.4825 C   0  0  0  0  0  0  0  0  0  0  0  0
    2.1709    4.6788    1.2326 N   0  0  0  0  0  0  0  0  0  0  0  0
    2.0262    3.3449    1.2761 C   0  0  0  0  0  0  0  0  0  0  0  0
    0.9796    2.7895    1.9915 C   0  0  0  0  0  0  0  0  0  0  0  0
    0.7205    1.4318    1.9434 C   0  0  0  0  0  0  0  0  0  0  0  0
   -0.4249    0.9621    2.4589 N   0  0  0  0  0  0  0  0  0  0  0  0
   -0.7204   -0.3253    2.2032 C   0  0  0  0  0  0  0  0  0  0  0  0
   -1.9402   -0.8053    2.6498 C   0  0  0  0  0  0  0  0  0  0  0  0
   -2.3756   -2.0786    2.3152 C   0  0  0  0  0  0  0  0  0  0  0  0
   -1.5634   -2.8841    1.5297 C   0  0  0  0  0  0  0  0  0  0  0  0
   -0.2900   -2.4499    1.0908 C   0  0  0  0  0  0  0  0  0  0  0  0
    0.5247   -3.4613    0.3391 C   0  0  0  0  0  0  0  0  0  0  0  0
    1.2729   -4.3930    1.1366 C   0  0  0  0  0  0  0  0  0  0  0  0
    1.7989   -4.1004    2.4201 C   0  0  0  0  0  0  0  0  0  0  0  0
    2.5004   -5.0486    3.1686 C   0  0  0  0  0  0  0  0  0  0  0  0
    2.6865   -6.3256    2.6616 C   0  0  0  0  0  0  0  0  0  0  0  0
    2.1663   -6.6501    1.4112 C   0  0  0  0  0  0  0  0  0  0  0  0
    1.4629   -5.7000    0.6494 C   0  0  0  0  0  0  0  0  0  0  0  0
    0.8868   -6.0647   -0.5697 C   0  0  0  0  0  0  0  0  0  0  0  0
    0.2344   -5.1359   -1.3916 C   0  0  0  0  0  0  0  0  0  0  0  0
   -0.3576   -5.5898   -2.5782 C   0  0  0  0  0  0  0  0  0  0  0  0
   -0.9788   -4.7211   -3.4787 C   0  0  0  0  0  0  0  0  0  0  0  0
   -1.6140   -5.2265   -4.6275 C   0  0  0  0  0  0  0  0  0  0  0  0
   -2.1746   -4.3713   -5.5732 C   0  0  0  0  0  0  0  0  0  0  0  0
   -2.0965   -2.9996   -5.3856 C   0  0  0  0  0  0  0  0  0  0  0  0
   -1.4642   -2.4898   -4.2487 C   0  0  0  0  0  0  0  0  0  0  0  0
   -0.9010   -3.3336   -3.2582 C   0  0  0  0  0  0  0  0  0  0  0  0
   -0.2225   -2.8588   -2.0847 C   0  0  0  0  0  0  0  0  0  0  0  0
    0.4749   -1.5389   -2.2064 C   0  0  0  0  0  0  0  0  0  0  0  0
   -0.0852   -0.3036   -1.8620 C   0  0  0  0  0  0  0  0  0  0  0  0
   -1.3215   -0.2248   -1.3308 N   0  0  0  0  0  0  0  0  0  0  0  0
   -1.6972    0.9499   -0.8113 C   0  0  0  0  0  0  0  0  0  0  0  0
   -2.8494    0.9934   -0.0546 C   0  0  0  0  0  0  0  0  0  0  0  0
   -3.1405    2.0879    0.7341 C   0  0  0  0  0  0  0  0  0  0  0  0
   -4.1614    2.0099    1.5999 N   0  0  0  0  0  0  0  0  0  0  0  0
   -4.4027    3.0866    2.3704 C   0  0  0  0  0  0  0  0  0  0  0  0
   -5.4567    3.0651    3.2765 C   0  0  0  0  0  0  0  0  0  0  0  0
   -5.7368    4.1626    4.0922 C   0  0  0  0  0  0  0  0  0  0  0  0
   -4.9488    5.3021    4.0004 C   0  0  0  0  0  0  0  0  0  0  0  0
   -3.8879    5.3329    3.0940 C   0  0  0  0  0  0  0  0  0  0  0  0
   -3.6011    4.2449    2.2774 C   0  0  0  0  0  0  0  0  0  0  0  0
   -2.5676    4.3088    1.4171 N   0  0  0  0  0  0  0  0  0  0  0  0
   -2.3314    3.2361    0.6472 C   0  0  0  0  0  0  0  0  0  0  0  0
   -1.2550    3.2397   -0.2229 C   0  0  0  0  0  0  0  0  0  0  0  0
   -0.8865    2.0976   -0.9094 C   0  0  0  0  0  0  0  0  0  0  0  0
    0.2829    2.0735   -1.5656 N   0  0  0  0  0  0  0  0  0  0  0  0
    0.6909    0.8784   -2.0299 C   0  0  0  0  0  0  0  0  0  0  0  0
    1.9368    0.8127   -2.6321 C   0  0  0  0  0  0  0  0  0  0  0  0
    2.4879   -0.4032   -3.0083 C   0  0  0  0  0  0  0  0  0  0  0  0
    1.7691   -1.5678   -2.7784 C   0  0  0  0  0  0  0  0  0  0  0  0
    0.1761   -3.7737   -1.0335 C   0  0  0  0  0  0  0  0  0  0  0  0
    0.1470   -1.1685    1.4513 C   0  0  0  0  0  0  0  0  0  0  0  0
    1.3532   -0.7111    1.0625 N   0  0  0  0  0  0  0  0  0  0  0  0
    1.6122    0.5879    1.2529 C   0  0  0  0  0  0  0  0  0  0  0  0
    2.7211    1.1293    0.6409 C   0  0  0  0  0  0  0  0  0  0  0  0
    2.9042    2.4951    0.5771 C   0  0  0  0  0  0  0  0  0  0  0  0
    3.8958    2.9783   -0.1840 N   0  0  0  0  0  0  0  0  0  0  0  0
    4.0400    4.3149   -0.2327 C   0  0  0  0  0  0  0  0  0  0  0  0
    5.0576    4.8693   -0.9994 C   0  0  0  0  0  0  0  0  0  0  0  0
    5.2393    6.2506   -1.0748 C   0  0  0  0  0  0  0  0  0  0  0  0
    4.5167    8.1706   -0.4199 H   0  0  0  0  0  0  0  0  0  0  0  0
    2.6948    7.2027    0.9523 H   0  0  0  0  0  0  0  0  0  0  0  0
    0.2947    3.4437    2.5237 H   0  0  0  0  0  0  0  0  0  0  0  0
   -2.5879   -0.1530    3.2314 H   0  0  0  0  0  0  0  0  0  0  0  0
   -3.3466   -2.4330    2.6492 H   0  0  0  0  0  0  0  0  0  0  0  0
   -1.9128   -3.8824    1.2665 H   0  0  0  0  0  0  0  0  0  0  0  0
    1.6918   -3.1051    2.8453 H   0  0  0  0  0  0  0  0  0  0  0  0
    2.9007   -4.7817    4.1429 H   0  0  0  0  0  0  0  0  0  0  0  0
    3.2290   -7.0698    3.2378 H   0  0  0  0  0  0  0  0  0  0  0  0
    2.3081   -7.6610    1.0349 H   0  0  0  0  0  0  0  0  0  0  0  0
    0.9660   -7.1011   -0.8976 H   0  0  0  0  0  0  0  0  0  0  0  0
   -0.3491   -6.6563   -2.8012 H   0  0  0  0  0  0  0  0  0  0  0  0
   -1.6691   -6.2996   -4.7985 H   0  0  0  0  0  0  0  0  0  0  0  0
   -2.6638   -4.7767   -6.4546 H   0  0  0  0  0  0  0  0  0  0  0  0
   -2.5277   -2.3205   -6.1162 H   0  0  0  0  0  0  0  0  0  0  0  0
   -1.4395   -1.4088   -4.1270 H   0  0  0  0  0  0  0  0  0  0  0  0
   -3.4584    0.0987    0.0320 H   0  0  0  0  0  0  0  0  0  0  0  0
   -6.0733    2.1722    3.3468 H   0  0  0  0  0  0  0  0  0  0  0  0
   -6.5666    4.1226    4.7934 H   0  0  0  0  0  0  0  0  0  0  0  0
   -5.1542    6.1650    4.6291 H   0  0  0  0  0  0  0  0  0  0  0  0
   -3.2692    6.2245    3.0208 H   0  0  0  0  0  0  0  0  0  0  0  0
   -0.6292    4.1252   -0.2892 H   0  0  0  0  0  0  0  0  0  0  0  0
    2.5117    1.7266   -2.7656 H   0  0  0  0  0  0  0  0  0  0  0  0
    3.4774   -0.4442   -3.4551 H   0  0  0  0  0  0  0  0  0  0  0  0
    2.2115   -2.5224   -3.0636 H   0  0  0  0  0  0  0  0  0  0  0  0
    3.3893    0.4767    0.0871 H   0  0  0  0  0  0  0  0  0  0  0  0
    5.7222    4.2079   -1.5500 H   0  0  0  0  0  0  0  0  0  0  0  0
    6.0418    6.6614   -1.6816 H   0  0  0  0  0  0  0  0  0  0  0  0
  1  2  4  0
  2  3  4  0
  3  4  4  0
  4  5  4  0
  5  6  4  0
  6  7  4  0
  7  8  4  0
  8  9  4  0
  9 10  4  0
 10 11  4  0
 11 12  4  0
 12 13  4  0
 13 14  1  0
 14 15  4  0
 15 16  4  0
 16 17  4  0
 17 18  4  0
 18 19  4  0
 19 20  4  0
 20 21  4  0
 21 22  4  0
 22 23  4  0
 23 24  4  0
 24 25  4  0
 25 26  4  0
 26 27  4  0
 27 28  4  0
 28 29  4  0
 29 30  4  0
 30 31  1  0
 31 32  4  0
 32 33  4  0
 33 34  4  0
 34 35  4  0
 35 36  4  0
 36 37  4  0
 37 38  4  0
 38 39  4  0
 39 40  4  0
 40 41  4  0
 41 42  4  0
 42 43  4  0
 43 44  4  0
 44 45  4  0
 45 46  4  0
 46 47  4  0
 47 48  4  0
 48 49  4  0
 49 50  4  0
 50 51  4  0
 51 52  4  0
 30 53  4  0
 13 54  4  0
 54 55  4  0
 55 56  4  0
 56 57  4  0
 57 58  4  0
 58 59  4  0
 59 60  4  0
 60 61  4  0
 61 62  4  0
 62  1  4  0
 60  3  4  0
 58  5  4  0
 56  7  4  0
 54  9  4  0
 53 14  4  0
 20 15  4  0
 53 22  4  0
 29 24  4  0
 52 31  4  0
 49 32  4  0
 47 34  4  0
 45 36  4  0
 43 38  4  0
  1 63  1  0
  2 64  1  0
  6 65  1  0
 10 66  1  0
 11 67  1  0
 12 68  1  0
 16 69  1  0
 17 70  1  0
 18 71  1  0
 19 72  1  0
 21 73  1  0
 23 74  1  0
 25 75  1  0
 26 76  1  0
 27 77  1  0
 28 78  1  0
 35 79  1  0
 39 80  1  0
 40 81  1  0
 41 82  1  0
 42 83  1  0
 46 84  1  0
 50 85  1  0
 51 86  1  0
 52 87  1  0
 57 88  1  0
 61 89  1  0
 62 90  1  0
M  END
