
     RDKit          3D

 94107  0  0  0  0  0  0  0  0999 V2000
    2.4269    5.8429    0.5823 C   0  0  0  0  0  0  0  0  0  0  0  0
    2.6377    6.0388   -0.7771 C   0  0  0  0  0  0  0  0  0  0  0  0
    2.5926    4.9495   -1.6513 C   0  0  0  0  0  0  0  0  0  0  0  0
    2.3338    3.6614   -1.2000 C   0  0  0  0  0  0  0  0  0  0  0  0
    2.2958    2.6464   -2.0780 N   0  0  0  0  0  0  0  0  0  0  0  0
    2.0426    1.4037   -1.6359 C   0  0  0  0  0  0  0  0  0  0  0  0
    2.0469    0.3829   -2.5639 C   0  0  0  0  0  0  0  0  0  0  0  0
    1.8418   -0.9547   -2.2005 C   0  0  0  0  0  0  0  0  0  0  0  0
    1.9007   -1.9697   -3.1622 C   0  0  0  0  0  0  0  0  0  0  0  0
    1.7271   -3.3041   -2.7897 C   0  0  0  0  0  0  0  0  0  0  0  0
    1.7751   -4.3537   -3.7250 C   0  0  0  0  0  0  0  0  0  0  0  0
    1.5928   -5.6716   -3.3118 C   0  0  0  0  0  0  0  0  0  0  0  0
    1.3775   -5.9442   -1.9659 C   0  0  0  0  0  0  0  0  0  0  0  0
    1.3346   -4.8953   -1.0425 C   0  0  0  0  0  0  0  0  0  0  0  0
    1.4982   -3.5726   -1.4315 C   0  0  0  0  0  0  0  0  0  0  0  0
    1.4259   -2.5995   -0.5086 N   0  0  0  0  0  0  0  0  0  0  0  0
    1.5838   -1.3034   -0.8645 C   0  0  0  0  0  0  0  0  0  0  0  0
    1.5133   -0.2647    0.0892 C   0  0  0  0  0  0  0  0  0  0  0  0
    1.2683   -0.6260    1.5198 C   0  0  0  0  0  0  0  0  0  0  0  0
    2.4468   -0.9306    2.3083 C   0  0  0  0  0  0  0  0  0  0  0  0
    3.7876   -0.8496    1.8371 C   0  0  0  0  0  0  0  0  0  0  0  0
    4.8906   -1.1466    2.6435 C   0  0  0  0  0  0  0  0  0  0  0  0
    4.6949   -1.5421    3.9558 C   0  0  0  0  0  0  0  0  0  0  0  0
    3.3976   -1.6427    4.4486 C   0  0  0  0  0  0  0  0  0  0  0  0
    2.2843   -1.3425    3.6398 C   0  0  0  0  0  0  0  0  0  0  0  0
    0.9993   -1.4645    4.1606 C   0  0  0  0  0  0  0  0  0  0  0  0
   -0.1525   -1.1716    3.4194 C   0  0  0  0  0  0  0  0  0  0  0  0
   -1.3719   -1.3556    4.0841 C   0  0  0  0  0  0  0  0  0  0  0  0
   -2.6028   -1.0906    3.4909 C   0  0  0  0  0  0  0  0  0  0  0  0
   -3.7899   -1.3036    4.2181 C   0  0  0  0  0  0  0  0  0  0  0  0
   -5.0352   -1.0328    3.6598 C   0  0  0  0  0  0  0  0  0  0  0  0
   -5.1052   -0.5416    2.3674 C   0  0  0  0  0  0  0  0  0  0  0  0
   -3.9288   -0.3289    1.6430 C   0  0  0  0  0  0  0  0  0  0  0  0
   -2.6376   -0.6009    2.1765 C   0  0  0  0  0  0  0  0  0  0  0  0
   -1.3874   -0.4029    1.4687 C   0  0  0  0  0  0  0  0  0  0  0  0
   -1.4971    0.1915    0.1010 C   0  0  0  0  0  0  0  0  0  0  0  0
   -1.5143    1.5977   -0.0195 C   0  0  0  0  0  0  0  0  0  0  0  0
   -1.4357    2.3981    1.0689 N   0  0  0  0  0  0  0  0  0  0  0  0
   -1.4656    3.7338    0.9362 C   0  0  0  0  0  0  0  0  0  0  0  0
   -1.4012    4.5321    2.0698 C   0  0  0  0  0  0  0  0  0  0  0  0
   -1.4162    5.9275    1.9877 C   0  0  0  0  0  0  0  0  0  0  0  0
   -1.4977    6.5465    0.7456 C   0  0  0  0  0  0  0  0  0  0  0  0
   -1.5668    5.7660   -0.4067 C   0  0  0  0  0  0  0  0  0  0  0  0
   -1.5551    4.3620   -0.3150 C   0  0  0  0  0  0  0  0  0  0  0  0
   -1.6363    3.5412   -1.4426 C   0  0  0  0  0  0  0  0  0  0  0  0
   -1.6366    2.1475   -1.3055 C   0  0  0  0  0  0  0  0  0  0  0  0
   -1.7729    1.3168   -2.4271 C   0  0  0  0  0  0  0  0  0  0  0  0
   -1.8359   -0.0588   -2.3207 C   0  0  0  0  0  0  0  0  0  0  0  0
   -2.0341   -0.7672   -3.4464 N   0  0  0  0  0  0  0  0  0  0  0  0
   -2.1341   -2.1050   -3.3729 C   0  0  0  0  0  0  0  0  0  0  0  0
   -2.3413   -2.8430   -4.5313 C   0  0  0  0  0  0  0  0  0  0  0  0
   -2.4563   -4.2368   -4.5066 C   0  0  0  0  0  0  0  0  0  0  0  0
   -2.3643   -4.9165   -3.2981 C   0  0  0  0  0  0  0  0  0  0  0  0
   -2.1578   -4.1986   -2.1231 C   0  0  0  0  0  0  0  0  0  0  0  0
   -2.0403   -2.7972   -2.1567 C   0  0  0  0  0  0  0  0  0  0  0  0
   -1.8200   -2.0444   -0.9983 C   0  0  0  0  0  0  0  0  0  0  0  0
   -1.7082   -0.6398   -1.0477 C   0  0  0  0  0  0  0  0  0  0  0  0
   -0.0878   -0.7146    2.0785 C   0  0  0  0  0  0  0  0  0  0  0  0
    1.7907    1.0898   -0.2898 C   0  0  0  0  0  0  0  0  0  0  0  0
    1.8457    2.1710    0.6131 C   0  0  0  0  0  0  0  0  0  0  0  0
    2.1205    3.4705    0.1733 C   0  0  0  0  0  0  0  0  0  0  0  0
    2.1721    4.5603    1.0598 C   0  0  0  0  0  0  0  0  0  0  0  0
    2.4548    6.6838    1.2694 H   0  0  0  0  0  0  0  0  0  0  0  0
    2.8377    7.0346   -1.1623 H   0  0  0  0  0  0  0  0  0  0  0  0
    2.7634    5.1096   -2.7129 H   0  0  0  0  0  0  0  0  0  0  0  0
    2.2401    0.6402   -3.6038 H   0  0  0  0  0  0  0  0  0  0  0  0
    2.0838   -1.7205   -4.2050 H   0  0  0  0  0  0  0  0  0  0  0  0
    1.9456   -4.1469   -4.7789 H   0  0  0  0  0  0  0  0  0  0  0  0
    1.6160   -6.4798   -4.0377 H   0  0  0  0  0  0  0  0  0  0  0  0
    1.2388   -6.9675   -1.6282 H   0  0  0  0  0  0  0  0  0  0  0  0
    1.1623   -5.1121    0.0091 H   0  0  0  0  0  0  0  0  0  0  0  0
    3.9952   -0.5498    0.8122 H   0  0  0  0  0  0  0  0  0  0  0  0
    5.8956   -1.0690    2.2377 H   0  0  0  0  0  0  0  0  0  0  0  0
    5.5432   -1.7775    4.5920 H   0  0  0  0  0  0  0  0  0  0  0  0
    3.2583   -1.9636    5.4790 H   0  0  0  0  0  0  0  0  0  0  0  0
    0.8942   -1.8005    5.1924 H   0  0  0  0  0  0  0  0  0  0  0  0
   -1.3660   -1.7197    5.1118 H   0  0  0  0  0  0  0  0  0  0  0  0
   -3.7499   -1.6825    5.2373 H   0  0  0  0  0  0  0  0  0  0  0  0
   -5.9418   -1.1993    4.2343 H   0  0  0  0  0  0  0  0  0  0  0  0
   -6.0675   -0.3167    1.9158 H   0  0  0  0  0  0  0  0  0  0  0  0
   -4.0385    0.0652    0.6349 H   0  0  0  0  0  0  0  0  0  0  0  0
   -1.3362    4.0517    3.0432 H   0  0  0  0  0  0  0  0  0  0  0  0
   -1.3621    6.5215    2.8955 H   0  0  0  0  0  0  0  0  0  0  0  0
   -1.5079    7.6308    0.6733 H   0  0  0  0  0  0  0  0  0  0  0  0
   -1.6294    6.2542   -1.3761 H   0  0  0  0  0  0  0  0  0  0  0  0
   -1.7098    3.9890   -2.4309 H   0  0  0  0  0  0  0  0  0  0  0  0
   -1.8633    1.7565   -3.4187 H   0  0  0  0  0  0  0  0  0  0  0  0
   -2.4176   -2.3181   -5.4802 H   0  0  0  0  0  0  0  0  0  0  0  0
   -2.6113   -4.7847   -5.4320 H   0  0  0  0  0  0  0  0  0  0  0  0
   -2.4419   -6.0000   -3.2706 H   0  0  0  0  0  0  0  0  0  0  0  0
   -2.0740   -4.7322   -1.1791 H   0  0  0  0  0  0  0  0  0  0  0  0
   -1.7203   -2.5635   -0.0468 H   0  0  0  0  0  0  0  0  0  0  0  0
    1.6518    2.0054    1.6713 H   0  0  0  0  0  0  0  0  0  0  0  0
    1.9983    4.4120    2.1230 H   0  0  0  0  0  0  0  0  0  0  0  0
  1  2  4  0
  2  3  4  0
  3  4  4  0
  4  5  4  0
  5  6  4  0
  6  7  4  0
  7  8  4  0
  8  9  4  0
  9 10  4  0
 10 11  4  0
 11 12  4  0
 12 13  4  0
 13 14  4  0
 14 15  4  0
 15 16  4  0
 16 17  4  0
 17 18  4  0
 18 19  1  0
 19 20  4  0
 20 21  4  0
 21 22  4  0
 22 23  4  0
 23 24  4  0
 24 25  4  0
 25 26  4  0
 26 27  4  0
 27 28  4  0
 28 29  4  0
 29 30  4  0
 30 31  4  0
 31 32  4  0
 32 33  4  0
 33 34  4  0
 34 35  4  0
 35 36  1  0
 36 37  4  0
 37 38  4  0
 38 39  4  0
 39 40  4  0
 40 41  4  0
 41 42  4  0
 42 43  4  0
 43 44  4  0
 44 45  4  0
 45 46  4  0
 46 47  4  0
 47 48  4  0
 48 49  4  0
 49 50  4  0
 50 51  4  0
 51 52  4  0
 52 53  4  0
 53 54  4  0
 54 55  4  0
 55 56  4  0
 56 57  4  0
 35 58  4  0
 18 59  4  0
 59 60  4  0
 60 61  4  0
 61 62  4  0
 62  1  4  0
 61  4  4  0
 59  6  4  0
 17  8  4  0
 58 19  4  0
 15 10  4  0
 25 20  4  0
 58 27  4  0
 34 29  4  0
 57 36  4  0
 46 37  4  0
 57 48  4  0
 44 39  4  0
 55 50  4  0
  1 63  1  0
  2 64  1  0
  3 65  1  0
  7 66  1  0
  9 67  1  0
 11 68  1  0
 12 69  1  0
 13 70  1  0
 14 71  1  0
 21 72  1  0
 22 73  1  0
 23 74  1  0
 24 75  1  0
 26 76  1  0
 28 77  1  0
 30 78  1  0
 31 79  1  0
 32 80  1  0
 33 81  1  0
 40 82  1  0
 41 83  1  0
 42 84  1  0
 43 85  1  0
 45 86  1  0
 47 87  1  0
 51 88  1  0
 52 89  1  0
 53 90  1  0
 54 91  1  0
 56 92  1  0
 60 93  1  0
 62 94  1  0
M  END
