
     RDKit          3D

 94107  0  0  0  0  0  0  0  0999 V2000
    2.2487    3.8052    4.6753 C   0  0  0  0  0  0  0  0  0  0  0  0
    2.0795    4.5107    3.4901 C   0  0  0  0  0  0  0  0  0  0  0  0
    1.9430    3.8202    2.2831 C   0  0  0  0  0  0  0  0  0  0  0  0
    1.9506    2.4341    2.2312 C   0  0  0  0  0  0  0  0  0  0  0  0
    1.7720    1.8170    1.0528 N   0  0  0  0  0  0  0  0  0  0  0  0
    1.7428    0.4698    0.9810 C   0  0  0  0  0  0  0  0  0  0  0  0
    1.9600   -0.3124    2.1278 C   0  0  0  0  0  0  0  0  0  0  0  0
    2.1434    0.3320    3.3569 C   0  0  0  0  0  0  0  0  0  0  0  0
    2.1293    1.7261    3.4296 C   0  0  0  0  0  0  0  0  0  0  0  0
    2.2820    2.4133    4.6474 C   0  0  0  0  0  0  0  0  0  0  0  0
    1.9990   -1.7107    2.0434 C   0  0  0  0  0  0  0  0  0  0  0  0
    1.8498   -2.3785    0.8448 C   0  0  0  0  0  0  0  0  0  0  0  0
    1.9546   -3.7183    0.8584 N   0  0  0  0  0  0  0  0  0  0  0  0
    1.8225   -4.4009   -0.2896 C   0  0  0  0  0  0  0  0  0  0  0  0
    1.9128   -5.7865   -0.2778 C   0  0  0  0  0  0  0  0  0  0  0  0
    1.7846   -6.5423   -1.4472 C   0  0  0  0  0  0  0  0  0  0  0  0
    1.5653   -5.9040   -2.6621 C   0  0  0  0  0  0  0  0  0  0  0  0
    1.4713   -4.5150   -2.7003 C   0  0  0  0  0  0  0  0  0  0  0  0
    1.5955   -3.7626   -1.5183 C   0  0  0  0  0  0  0  0  0  0  0  0
    1.4937   -2.3672   -1.5135 C   0  0  0  0  0  0  0  0  0  0  0  0
    1.6095   -1.6258   -0.3173 C   0  0  0  0  0  0  0  0  0  0  0  0
    1.5118   -0.1938   -0.2399 C   0  0  0  0  0  0  0  0  0  0  0  0
    1.2846    0.5995   -1.4897 C   0  0  0  0  0  0  0  0  0  0  0  0
    2.4748    0.9793   -2.2235 C   0  0  0  0  0  0  0  0  0  0  0  0
    3.8085    0.7970   -1.7624 C   0  0  0  0  0  0  0  0  0  0  0  0
    4.9248    1.1731   -2.5145 C   0  0  0  0  0  0  0  0  0  0  0  0
    4.7489    1.7435   -3.7636 C   0  0  0  0  0  0  0  0  0  0  0  0
    3.4591    1.9313   -4.2510 C   0  0  0  0  0  0  0  0  0  0  0  0
    2.3320    1.5559   -3.4949 C   0  0  0  0  0  0  0  0  0  0  0  0
    1.0550    1.7373   -4.0197 C   0  0  0  0  0  0  0  0  0  0  0  0
   -0.1098    1.4020   -3.3175 C   0  0  0  0  0  0  0  0  0  0  0  0
   -1.3203    1.6288   -3.9864 C   0  0  0  0  0  0  0  0  0  0  0  0
   -2.5615    1.3614   -3.4142 C   0  0  0  0  0  0  0  0  0  0  0  0
   -3.7390    1.5977   -4.1506 C   0  0  0  0  0  0  0  0  0  0  0  0
   -4.9946    1.3674   -3.5962 C   0  0  0  0  0  0  0  0  0  0  0  0
   -5.0850    0.9037   -2.2946 C   0  0  0  0  0  0  0  0  0  0  0  0
   -3.9186    0.6694   -1.5602 C   0  0  0  0  0  0  0  0  0  0  0  0
   -2.6177    0.8806   -2.0972 C   0  0  0  0  0  0  0  0  0  0  0  0
   -1.3779    0.6497   -1.3834 C   0  0  0  0  0  0  0  0  0  0  0  0
   -1.5068    0.2895    0.0613 C   0  0  0  0  0  0  0  0  0  0  0  0
   -1.6817   -1.0710    0.4747 C   0  0  0  0  0  0  0  0  0  0  0  0
   -1.7763   -2.1651   -0.4109 C   0  0  0  0  0  0  0  0  0  0  0  0
   -1.9404   -3.4715    0.0635 C   0  0  0  0  0  0  0  0  0  0  0  0
   -2.0384   -4.5745   -0.8046 C   0  0  0  0  0  0  0  0  0  0  0  0
   -2.1937   -5.8612   -0.2939 C   0  0  0  0  0  0  0  0  0  0  0  0
   -2.2470   -6.0490    1.0819 C   0  0  0  0  0  0  0  0  0  0  0  0
   -2.1510   -4.9470    1.9377 C   0  0  0  0  0  0  0  0  0  0  0  0
   -2.0016   -3.6536    1.4532 C   0  0  0  0  0  0  0  0  0  0  0  0
   -1.9334   -2.6245    2.3150 N   0  0  0  0  0  0  0  0  0  0  0  0
   -1.7896   -1.3762    1.8416 C   0  0  0  0  0  0  0  0  0  0  0  0
   -1.7646   -0.3421    2.7563 C   0  0  0  0  0  0  0  0  0  0  0  0
   -1.6736    0.9999    2.3626 C   0  0  0  0  0  0  0  0  0  0  0  0
   -1.7021    2.0275    3.3133 C   0  0  0  0  0  0  0  0  0  0  0  0
   -1.6347    3.3632    2.9103 C   0  0  0  0  0  0  0  0  0  0  0  0
   -1.6369    4.4250    3.8334 C   0  0  0  0  0  0  0  0  0  0  0  0
   -1.5576    5.7431    3.3890 C   0  0  0  0  0  0  0  0  0  0  0  0
   -1.4887    6.0040    2.0253 C   0  0  0  0  0  0  0  0  0  0  0  0
   -1.4879    4.9428    1.1148 C   0  0  0  0  0  0  0  0  0  0  0  0
   -1.5526    3.6203    1.5333 C   0  0  0  0  0  0  0  0  0  0  0  0
   -1.5250    2.6364    0.6208 N   0  0  0  0  0  0  0  0  0  0  0  0
   -1.5588    1.3398    1.0053 C   0  0  0  0  0  0  0  0  0  0  0  0
   -0.0658    0.8622   -2.0078 C   0  0  0  0  0  0  0  0  0  0  0  0
    2.3498    4.3374    5.6167 H   0  0  0  0  0  0  0  0  0  0  0  0
    2.0339    5.5961    3.4978 H   0  0  0  0  0  0  0  0  0  0  0  0
    1.7967    4.3754    1.3592 H   0  0  0  0  0  0  0  0  0  0  0  0
    2.2946   -0.2538    4.2607 H   0  0  0  0  0  0  0  0  0  0  0  0
    2.4204    1.8689    5.5782 H   0  0  0  0  0  0  0  0  0  0  0  0
    2.1690   -2.3065    2.9385 H   0  0  0  0  0  0  0  0  0  0  0  0
    2.0776   -6.2919    0.6706 H   0  0  0  0  0  0  0  0  0  0  0  0
    1.8497   -7.6257   -1.3999 H   0  0  0  0  0  0  0  0  0  0  0  0
    1.4663   -6.4838   -3.5757 H   0  0  0  0  0  0  0  0  0  0  0  0
    1.2993   -4.0199   -3.6534 H   0  0  0  0  0  0  0  0  0  0  0  0
    1.3180   -1.8541   -2.4566 H   0  0  0  0  0  0  0  0  0  0  0  0
    3.9996    0.3657   -0.7823 H   0  0  0  0  0  0  0  0  0  0  0  0
    5.9235    1.0221   -2.1141 H   0  0  0  0  0  0  0  0  0  0  0  0
    5.6081    2.0433   -4.3566 H   0  0  0  0  0  0  0  0  0  0  0  0
    3.3371    2.3774   -5.2359 H   0  0  0  0  0  0  0  0  0  0  0  0
    0.9666    2.1680   -5.0173 H   0  0  0  0  0  0  0  0  0  0  0  0
   -1.2989    2.0350   -4.9979 H   0  0  0  0  0  0  0  0  0  0  0  0
   -3.6837    1.9748   -5.1699 H   0  0  0  0  0  0  0  0  0  0  0  0
   -5.8937    1.5596   -4.1750 H   0  0  0  0  0  0  0  0  0  0  0  0
   -6.0562    0.7282   -1.8399 H   0  0  0  0  0  0  0  0  0  0  0  0
   -4.0438    0.3154   -0.5392 H   0  0  0  0  0  0  0  0  0  0  0  0
   -1.7176   -2.0006   -1.4846 H   0  0  0  0  0  0  0  0  0  0  0  0
   -1.9850   -4.4338   -1.8814 H   0  0  0  0  0  0  0  0  0  0  0  0
   -2.2629   -6.7121   -0.9659 H   0  0  0  0  0  0  0  0  0  0  0  0
   -2.3597   -7.0474    1.4958 H   0  0  0  0  0  0  0  0  0  0  0  0
   -2.1932   -5.0995    3.0133 H   0  0  0  0  0  0  0  0  0  0  0  0
   -1.8455   -0.5930    3.8121 H   0  0  0  0  0  0  0  0  0  0  0  0
   -1.7721    1.7875    4.3714 H   0  0  0  0  0  0  0  0  0  0  0  0
   -1.6840    4.2274    4.9011 H   0  0  0  0  0  0  0  0  0  0  0  0
   -1.5408    6.5597    4.1052 H   0  0  0  0  0  0  0  0  0  0  0  0
   -1.4282    7.0270    1.6636 H   0  0  0  0  0  0  0  0  0  0  0  0
   -1.4212    5.1473    0.0486 H   0  0  0  0  0  0  0  0  0  0  0  0
  1  2  4  0
  2  3  4  0
  3  4  4  0
  4  5  4  0
  5  6  4  0
  6  7  4  0
  7  8  4  0
  8  9  4  0
  9 10  4  0
  7 11  4  0
 11 12  4  0
 12 13  4  0
 13 14  4  0
 14 15  4  0
 15 16  4  0
 16 17  4  0
 17 18  4  0
 18 19  4  0
 19 20  4  0
 20 21  4  0
 21 22  4  0
 22 23  1  0
 23 24  4  0
 24 25  4  0
 25 26  4  0
 26 27  4  0
 27 28  4  0
 28 29  4  0
 29 30  4  0
 30 31  4  0
 31 32  4  0
 32 33  4  0
 33 34  4  0
 34 35  4  0
 35 36  4  0
 36 37  4  0
 37 38  4  0
 38 39  4  0
 39 40  1  0
 40 41  4  0
 41 42  4  0
 42 43  4  0
 43 44  4  0
 44 45  4  0
 45 46  4  0
 46 47  4  0
 47 48  4  0
 48 49  4  0
 49 50  4  0
 50 51  4  0
 51 52  4  0
 52 53  4  0
 53 54  4  0
 54 55  4  0
 55 56  4  0
 56 57  4  0
 57 58  4  0
 58 59  4  0
 59 60  4  0
 60 61  4  0
 39 62  4  0
 10  1  4  0
 21 12  4  0
 62 23  4  0
  9  4  4  0
 19 14  4  0
 29 24  4  0
 62 31  4  0
 22  6  4  0
 38 33  4  0
 61 40  4  0
 50 41  4  0
 61 52  4  0
 48 43  4  0
 59 54  4  0
  1 63  1  0
  2 64  1  0
  3 65  1  0
  8 66  1  0
 10 67  1  0
 11 68  1  0
 15 69  1  0
 16 70  1  0
 17 71  1  0
 18 72  1  0
 20 73  1  0
 25 74  1  0
 26 75  1  0
 27 76  1  0
 28 77  1  0
 30 78  1  0
 32 79  1  0
 34 80  1  0
 35 81  1  0
 36 82  1  0
 37 83  1  0
 42 84  1  0
 44 85  1  0
 45 86  1  0
 46 87  1  0
 47 88  1  0
 51 89  1  0
 53 90  1  0
 55 91  1  0
 56 92  1  0
 57 93  1  0
 58 94  1  0
M  END
