
     RDKit          3D

 94107  0  0  0  0  0  0  0  0999 V2000
   11.0411    1.5160   -2.8307 C   0  0  0  0  0  0  0  0  0  0  0  0
   10.0024    2.2936   -2.3233 C   0  0  0  0  0  0  0  0  0  0  0  0
    8.8047    1.6897   -1.8990 C   0  0  0  0  0  0  0  0  0  0  0  0
    7.7410    2.4388   -1.3843 C   0  0  0  0  0  0  0  0  0  0  0  0
    6.5653    1.8008   -0.9723 C   0  0  0  0  0  0  0  0  0  0  0  0
    5.4735    2.5176   -0.4463 C   0  0  0  0  0  0  0  0  0  0  0  0
    4.3118    1.8834   -0.0345 C   0  0  0  0  0  0  0  0  0  0  0  0
    3.3031    2.6118    0.4689 N   0  0  0  0  0  0  0  0  0  0  0  0
    2.1799    1.9940    0.8807 C   0  0  0  0  0  0  0  0  0  0  0  0
    1.1668    2.7733    1.4193 C   0  0  0  0  0  0  0  0  0  0  0  0
   -0.0194    2.2180    1.8979 C   0  0  0  0  0  0  0  0  0  0  0  0
   -0.2101    0.8441    1.8314 C   0  0  0  0  0  0  0  0  0  0  0  0
    0.7711    0.0144    1.2626 C   0  0  0  0  0  0  0  0  0  0  0  0
    0.5549   -1.4573    1.2649 C   0  0  0  0  0  0  0  0  0  0  0  0
    1.0407   -2.1686    2.4292 C   0  0  0  0  0  0  0  0  0  0  0  0
    1.6361   -1.5542    3.5661 C   0  0  0  0  0  0  0  0  0  0  0  0
    2.0956   -2.2865    4.6645 C   0  0  0  0  0  0  0  0  0  0  0  0
    1.9783   -3.6661    4.6670 C   0  0  0  0  0  0  0  0  0  0  0  0
    1.4034   -4.3025    3.5710 C   0  0  0  0  0  0  0  0  0  0  0  0
    0.9396   -3.5684    2.4622 C   0  0  0  0  0  0  0  0  0  0  0  0
    0.3828   -4.2346    1.3737 C   0  0  0  0  0  0  0  0  0  0  0  0
   -0.1030   -3.5658    0.2429 C   0  0  0  0  0  0  0  0  0  0  0  0
   -0.6276   -4.3727   -0.7748 C   0  0  0  0  0  0  0  0  0  0  0  0
   -1.1565   -3.8517   -1.9528 C   0  0  0  0  0  0  0  0  0  0  0  0
   -1.6640   -4.7212   -2.9374 C   0  0  0  0  0  0  0  0  0  0  0  0
   -2.2134   -4.2308   -4.1184 C   0  0  0  0  0  0  0  0  0  0  0  0
   -2.2630   -2.8626   -4.3253 C   0  0  0  0  0  0  0  0  0  0  0  0
   -1.7603   -1.9960   -3.3503 C   0  0  0  0  0  0  0  0  0  0  0  0
   -1.1872   -2.4599   -2.1331 C   0  0  0  0  0  0  0  0  0  0  0  0
   -0.6585   -1.6063   -1.0891 C   0  0  0  0  0  0  0  0  0  0  0  0
   -0.8056   -0.1424   -1.3069 C   0  0  0  0  0  0  0  0  0  0  0  0
   -1.9921    0.5608   -0.9274 C   0  0  0  0  0  0  0  0  0  0  0  0
   -3.0864   -0.0393   -0.2717 C   0  0  0  0  0  0  0  0  0  0  0  0
   -4.2191    0.7050    0.0757 C   0  0  0  0  0  0  0  0  0  0  0  0
   -5.3215    0.1248    0.7319 C   0  0  0  0  0  0  0  0  0  0  0  0
   -6.4415    0.8661    1.0726 C   0  0  0  0  0  0  0  0  0  0  0  0
   -7.4688    0.2651    1.6971 N   0  0  0  0  0  0  0  0  0  0  0  0
   -8.5522    0.9910    2.0263 C   0  0  0  0  0  0  0  0  0  0  0  0
   -9.6164    0.3755    2.6720 C   0  0  0  0  0  0  0  0  0  0  0  0
  -10.7646    1.0843    3.0384 C   0  0  0  0  0  0  0  0  0  0  0  0
  -10.8597    2.4420    2.7558 C   0  0  0  0  0  0  0  0  0  0  0  0
   -9.8072    3.0844    2.1080 C   0  0  0  0  0  0  0  0  0  0  0  0
   -8.6549    2.3661    1.7421 C   0  0  0  0  0  0  0  0  0  0  0  0
   -7.5796    2.9794    1.0908 C   0  0  0  0  0  0  0  0  0  0  0  0
   -6.4493    2.2312    0.7444 C   0  0  0  0  0  0  0  0  0  0  0  0
   -5.3464    2.8097    0.0882 C   0  0  0  0  0  0  0  0  0  0  0  0
   -4.2279    2.0661   -0.2529 C   0  0  0  0  0  0  0  0  0  0  0  0
   -3.2017    2.6623   -0.8797 N   0  0  0  0  0  0  0  0  0  0  0  0
   -2.1169    1.9370   -1.2110 C   0  0  0  0  0  0  0  0  0  0  0  0
   -1.0780    2.5786   -1.8688 C   0  0  0  0  0  0  0  0  0  0  0  0
    0.0753    1.9030   -2.2664 C   0  0  0  0  0  0  0  0  0  0  0  0
    0.2058    0.5469   -1.9964 C   0  0  0  0  0  0  0  0  0  0  0  0
   -0.0669   -2.1524    0.1350 C   0  0  0  0  0  0  0  0  0  0  0  0
    1.9931    0.5981    0.8004 C   0  0  0  0  0  0  0  0  0  0  0  0
    3.0673   -0.1411    0.2622 C   0  0  0  0  0  0  0  0  0  0  0  0
    4.2441    0.4907   -0.1594 C   0  0  0  0  0  0  0  0  0  0  0  0
    5.3353   -0.2277   -0.6878 C   0  0  0  0  0  0  0  0  0  0  0  0
    6.5004    0.4041   -1.0961 C   0  0  0  0  0  0  0  0  0  0  0  0
    7.5159   -0.3267   -1.5892 N   0  0  0  0  0  0  0  0  0  0  0  0
    8.6431    0.2938   -1.9825 C   0  0  0  0  0  0  0  0  0  0  0  0
    9.6943   -0.4570   -2.4923 C   0  0  0  0  0  0  0  0  0  0  0  0
   10.8871    0.1373   -2.9156 C   0  0  0  0  0  0  0  0  0  0  0  0
   11.9657    1.9845   -3.1581 H   0  0  0  0  0  0  0  0  0  0  0  0
   10.1305    3.3718   -2.2602 H   0  0  0  0  0  0  0  0  0  0  0  0
    7.8282    3.5199   -1.3031 H   0  0  0  0  0  0  0  0  0  0  0  0
    5.5272    3.5997   -0.3485 H   0  0  0  0  0  0  0  0  0  0  0  0
    1.3077    3.8505    1.4747 H   0  0  0  0  0  0  0  0  0  0  0  0
   -0.7917    2.8582    2.3164 H   0  0  0  0  0  0  0  0  0  0  0  0
   -1.1324    0.4153    2.2192 H   0  0  0  0  0  0  0  0  0  0  0  0
    1.7558   -0.4731    3.6128 H   0  0  0  0  0  0  0  0  0  0  0  0
    2.5446   -1.7713    5.5094 H   0  0  0  0  0  0  0  0  0  0  0  0
    2.3337   -4.2462    5.5142 H   0  0  0  0  0  0  0  0  0  0  0  0
    1.3215   -5.3878    3.5869 H   0  0  0  0  0  0  0  0  0  0  0  0
    0.3273   -5.3233    1.4119 H   0  0  0  0  0  0  0  0  0  0  0  0
   -0.6277   -5.4559   -0.6471 H   0  0  0  0  0  0  0  0  0  0  0  0
   -1.6377   -5.7991   -2.7876 H   0  0  0  0  0  0  0  0  0  0  0  0
   -2.6025   -4.9145   -4.8678 H   0  0  0  0  0  0  0  0  0  0  0  0
   -2.6920   -2.4608   -5.2394 H   0  0  0  0  0  0  0  0  0  0  0  0
   -1.8270   -0.9298   -3.5601 H   0  0  0  0  0  0  0  0  0  0  0  0
   -3.0589   -1.0993   -0.0266 H   0  0  0  0  0  0  0  0  0  0  0  0
   -5.3096   -0.9336    0.9848 H   0  0  0  0  0  0  0  0  0  0  0  0
   -9.5502   -0.6866    2.8963 H   0  0  0  0  0  0  0  0  0  0  0  0
  -11.5791    0.5715    3.5433 H   0  0  0  0  0  0  0  0  0  0  0  0
  -11.7494    2.9988    3.0384 H   0  0  0  0  0  0  0  0  0  0  0  0
   -9.8881    4.1467    1.8896 H   0  0  0  0  0  0  0  0  0  0  0  0
   -7.6218    4.0400    0.8536 H   0  0  0  0  0  0  0  0  0  0  0  0
   -5.3559    3.8672   -0.1673 H   0  0  0  0  0  0  0  0  0  0  0  0
   -1.1695    3.6413   -2.0823 H   0  0  0  0  0  0  0  0  0  0  0  0
    0.8701    2.4372   -2.7802 H   0  0  0  0  0  0  0  0  0  0  0  0
    1.1035    0.0230   -2.3193 H   0  0  0  0  0  0  0  0  0  0  0  0
    2.9925   -1.2233    0.1756 H   0  0  0  0  0  0  0  0  0  0  0  0
    5.2806   -1.3106   -0.7804 H   0  0  0  0  0  0  0  0  0  0  0  0
    9.5810   -1.5364   -2.5620 H   0  0  0  0  0  0  0  0  0  0  0  0
   11.6897   -0.4807   -3.3097 H   0  0  0  0  0  0  0  0  0  0  0  0
  1  2  4  0
  2  3  4  0
  3  4  4  0
  4  5  4  0
  5  6  4  0
  6  7  4  0
  7  8  4  0
  8  9  4  0
  9 10  4  0
 10 11  4  0
 11 12  4  0
 12 13  4  0
 13 14  1  0
 14 15  4  0
 15 16  4  0
 16 17  4  0
 17 18  4  0
 18 19  4  0
 19 20  4  0
 20 21  4  0
 21 22  4  0
 22 23  4  0
 23 24  4  0
 24 25  4  0
 25 26  4  0
 26 27  4  0
 27 28  4  0
 28 29  4  0
 29 30  4  0
 30 31  1  0
 31 32  4  0
 32 33  4  0
 33 34  4  0
 34 35  4  0
 35 36  4  0
 36 37  4  0
 37 38  4  0
 38 39  4  0
 39 40  4  0
 40 41  4  0
 41 42  4  0
 42 43  4  0
 43 44  4  0
 44 45  4  0
 45 46  4  0
 46 47  4  0
 47 48  4  0
 48 49  4  0
 49 50  4  0
 50 51  4  0
 51 52  4  0
 30 53  4  0
 13 54  4  0
 54 55  4  0
 55 56  4  0
 56 57  4  0
 57 58  4  0
 58 59  4  0
 59 60  4  0
 60 61  4  0
 61 62  4  0
 62  1  4  0
 60  3  4  0
 58  5  4  0
 56  7  4  0
 54  9  4  0
 53 14  4  0
 20 15  4  0
 53 22  4  0
 29 24  4  0
 52 31  4  0
 49 32  4  0
 47 34  4  0
 45 36  4  0
 43 38  4  0
  1 63  1  0
  2 64  1  0
  4 65  1  0
  6 66  1  0
 10 67  1  0
 11 68  1  0
 12 69  1  0
 16 70  1  0
 17 71  1  0
 18 72  1  0
 19 73  1  0
 21 74  1  0
 23 75  1  0
 25 76  1  0
 26 77  1  0
 27 78  1  0
 28 79  1  0
 33 80  1  0
 35 81  1  0
 39 82  1  0
 40 83  1  0
 41 84  1  0
 42 85  1  0
 44 86  1  0
 46 87  1  0
 50 88  1  0
 51 89  1  0
 52 90  1  0
 55 91  1  0
 57 92  1  0
 61 93  1  0
 62 94  1  0
M  END
