
     RDKit          3D

 94107  0  0  0  0  0  0  0  0999 V2000
   -7.2225    7.0633    2.4956 C   0  0  0  0  0  0  0  0  0  0  0  0
   -6.5179    7.7662    1.5252 C   0  0  0  0  0  0  0  0  0  0  0  0
   -5.5617    7.1083    0.7459 C   0  0  0  0  0  0  0  0  0  0  0  0
   -5.2881    5.7571    0.9106 C   0  0  0  0  0  0  0  0  0  0  0  0
   -4.3584    5.1720    0.1345 N   0  0  0  0  0  0  0  0  0  0  0  0
   -4.0974    3.8644    0.2976 C   0  0  0  0  0  0  0  0  0  0  0  0
   -3.1399    3.2570   -0.4990 C   0  0  0  0  0  0  0  0  0  0  0  0
   -2.8270    1.8895   -0.3734 C   0  0  0  0  0  0  0  0  0  0  0  0
   -1.8645    1.2684   -1.1782 C   0  0  0  0  0  0  0  0  0  0  0  0
   -1.6031   -0.0986   -1.0339 C   0  0  0  0  0  0  0  0  0  0  0  0
   -0.6631   -0.7631   -1.8390 C   0  0  0  0  0  0  0  0  0  0  0  0
   -0.4457   -2.1321   -1.6818 C   0  0  0  0  0  0  0  0  0  0  0  0
   -1.1411   -2.8495   -0.7011 C   0  0  0  0  0  0  0  0  0  0  0  0
   -0.9877   -4.3168   -0.5671 C   0  0  0  0  0  0  0  0  0  0  0  0
   -1.8880   -5.1240   -1.3638 C   0  0  0  0  0  0  0  0  0  0  0  0
   -2.8425   -4.6074   -2.2844 C   0  0  0  0  0  0  0  0  0  0  0  0
   -3.6939   -5.4289   -3.0287 C   0  0  0  0  0  0  0  0  0  0  0  0
   -3.6241   -6.8033   -2.8784 C   0  0  0  0  0  0  0  0  0  0  0  0
   -2.7044   -7.3455   -1.9854 C   0  0  0  0  0  0  0  0  0  0  0  0
   -1.8441   -6.5213   -1.2345 C   0  0  0  0  0  0  0  0  0  0  0  0
   -0.9410   -7.0930   -0.3419 C   0  0  0  0  0  0  0  0  0  0  0  0
   -0.0563   -6.3323    0.4330 C   0  0  0  0  0  0  0  0  0  0  0  0
    0.7886   -7.0476    1.2918 C   0  0  0  0  0  0  0  0  0  0  0  0
    1.7249   -6.4279    2.1157 C   0  0  0  0  0  0  0  0  0  0  0  0
    2.5428   -7.2056    2.9581 C   0  0  0  0  0  0  0  0  0  0  0  0
    3.4943   -6.6148    3.7845 C   0  0  0  0  0  0  0  0  0  0  0  0
    3.6392   -5.2378    3.7756 C   0  0  0  0  0  0  0  0  0  0  0  0
    2.8295   -4.4622    2.9409 C   0  0  0  0  0  0  0  0  0  0  0  0
    1.8444   -5.0294    2.0851 C   0  0  0  0  0  0  0  0  0  0  0  0
    0.9842   -4.2718    1.2018 C   0  0  0  0  0  0  0  0  0  0  0  0
    1.2070   -2.8100    1.1689 C   0  0  0  0  0  0  0  0  0  0  0  0
    2.1597   -2.2606    0.2904 C   0  0  0  0  0  0  0  0  0  0  0  0
    2.4286   -0.9006    0.2449 C   0  0  0  0  0  0  0  0  0  0  0  0
    3.3330   -0.4375   -0.6369 N   0  0  0  0  0  0  0  0  0  0  0  0
    3.5763    0.8817   -0.6929 C   0  0  0  0  0  0  0  0  0  0  0  0
    4.5024    1.3632   -1.6039 C   0  0  0  0  0  0  0  0  0  0  0  0
    4.7933    2.7361   -1.7098 C   0  0  0  0  0  0  0  0  0  0  0  0
    5.7277    3.2260   -2.6288 C   0  0  0  0  0  0  0  0  0  0  0  0
    5.9874    4.5987   -2.7019 C   0  0  0  0  0  0  0  0  0  0  0  0
    6.9196    5.1307   -3.6110 C   0  0  0  0  0  0  0  0  0  0  0  0
    7.1531    6.5033   -3.6561 C   0  0  0  0  0  0  0  0  0  0  0  0
    6.4583    7.3458   -2.7963 C   0  0  0  0  0  0  0  0  0  0  0  0
    5.5327    6.8110   -1.8950 C   0  0  0  0  0  0  0  0  0  0  0  0
    5.2806    5.4471   -1.8284 C   0  0  0  0  0  0  0  0  0  0  0  0
    4.3805    4.9837   -0.9427 N   0  0  0  0  0  0  0  0  0  0  0  0
    4.1406    3.6633   -0.8820 C   0  0  0  0  0  0  0  0  0  0  0  0
    3.2142    3.1809    0.0288 C   0  0  0  0  0  0  0  0  0  0  0  0
    2.9245    1.8078    0.1362 C   0  0  0  0  0  0  0  0  0  0  0  0
    1.9916    1.3168    1.0565 C   0  0  0  0  0  0  0  0  0  0  0  0
    1.7290   -0.0548    1.1253 C   0  0  0  0  0  0  0  0  0  0  0  0
    0.7995   -0.5856    2.0348 C   0  0  0  0  0  0  0  0  0  0  0  0
    0.5479   -1.9563    2.0608 C   0  0  0  0  0  0  0  0  0  0  0  0
   -0.0185   -4.9171    0.3525 C   0  0  0  0  0  0  0  0  0  0  0  0
   -2.0826   -2.1633    0.0897 C   0  0  0  0  0  0  0  0  0  0  0  0
   -2.3259   -0.8042   -0.0547 C   0  0  0  0  0  0  0  0  0  0  0  0
   -3.2415   -0.2112    0.7327 N   0  0  0  0  0  0  0  0  0  0  0  0
   -3.4919    1.0987    0.5767 C   0  0  0  0  0  0  0  0  0  0  0  0
   -4.4464    1.7064    1.3760 C   0  0  0  0  0  0  0  0  0  0  0  0
   -4.7581    3.0732    1.2505 C   0  0  0  0  0  0  0  0  0  0  0  0
   -5.7237    3.6893    2.0542 C   0  0  0  0  0  0  0  0  0  0  0  0
   -6.0049    5.0503    1.8949 C   0  0  0  0  0  0  0  0  0  0  0  0
   -6.9679    5.7066    2.6823 C   0  0  0  0  0  0  0  0  0  0  0  0
   -7.9671    7.5692    3.1049 H   0  0  0  0  0  0  0  0  0  0  0  0
   -6.7071    8.8251    1.3700 H   0  0  0  0  0  0  0  0  0  0  0  0
   -5.0144    7.6651   -0.0112 H   0  0  0  0  0  0  0  0  0  0  0  0
   -2.6279    3.8690   -1.2388 H   0  0  0  0  0  0  0  0  0  0  0  0
   -1.3267    1.8468   -1.9262 H   0  0  0  0  0  0  0  0  0  0  0  0
   -0.0964   -0.2219   -2.5934 H   0  0  0  0  0  0  0  0  0  0  0  0
    0.2716   -2.6394   -2.3242 H   0  0  0  0  0  0  0  0  0  0  0  0
   -2.9383   -3.5339   -2.4372 H   0  0  0  0  0  0  0  0  0  0  0  0
   -4.4069   -4.9866   -3.7193 H   0  0  0  0  0  0  0  0  0  0  0  0
   -4.2823   -7.4524   -3.4490 H   0  0  0  0  0  0  0  0  0  0  0  0
   -2.6652   -8.4276   -1.8758 H   0  0  0  0  0  0  0  0  0  0  0  0
   -0.9278   -8.1794   -0.2491 H   0  0  0  0  0  0  0  0  0  0  0  0
    0.7163   -8.1353    1.3229 H   0  0  0  0  0  0  0  0  0  0  0  0
    2.4443   -8.2896    2.9742 H   0  0  0  0  0  0  0  0  0  0  0  0
    4.1187   -7.2288    4.4277 H   0  0  0  0  0  0  0  0  0  0  0  0
    4.3782   -4.7582    4.4118 H   0  0  0  0  0  0  0  0  0  0  0  0
    2.9827   -3.3850    2.9691 H   0  0  0  0  0  0  0  0  0  0  0  0
    2.7032   -2.9171   -0.3871 H   0  0  0  0  0  0  0  0  0  0  0  0
    5.0061    0.6458   -2.2480 H   0  0  0  0  0  0  0  0  0  0  0  0
    6.2535    2.5386   -3.2874 H   0  0  0  0  0  0  0  0  0  0  0  0
    7.4669    4.4778   -4.2870 H   0  0  0  0  0  0  0  0  0  0  0  0
    7.8739    6.9128   -4.3592 H   0  0  0  0  0  0  0  0  0  0  0  0
    6.6314    8.4186   -2.8218 H   0  0  0  0  0  0  0  0  0  0  0  0
    4.9928    7.4768   -1.2258 H   0  0  0  0  0  0  0  0  0  0  0  0
    2.7030    3.8963    0.6696 H   0  0  0  0  0  0  0  0  0  0  0  0
    1.4662    2.0027    1.7173 H   0  0  0  0  0  0  0  0  0  0  0  0
    0.2590    0.0620    2.7209 H   0  0  0  0  0  0  0  0  0  0  0  0
   -0.1736   -2.3575    2.7699 H   0  0  0  0  0  0  0  0  0  0  0  0
   -2.6531   -2.7126    0.8368 H   0  0  0  0  0  0  0  0  0  0  0  0
   -4.9635    1.0937    2.1117 H   0  0  0  0  0  0  0  0  0  0  0  0
   -6.2565    3.1085    2.8036 H   0  0  0  0  0  0  0  0  0  0  0  0
   -7.5229    5.1636    3.4439 H   0  0  0  0  0  0  0  0  0  0  0  0
  1  2  4  0
  2  3  4  0
  3  4  4  0
  4  5  4  0
  5  6  4  0
  6  7  4  0
  7  8  4  0
  8  9  4  0
  9 10  4  0
 10 11  4  0
 11 12  4  0
 12 13  4  0
 13 14  1  0
 14 15  4  0
 15 16  4  0
 16 17  4  0
 17 18  4  0
 18 19  4  0
 19 20  4  0
 20 21  4  0
 21 22  4  0
 22 23  4  0
 23 24  4  0
 24 25  4  0
 25 26  4  0
 26 27  4  0
 27 28  4  0
 28 29  4  0
 29 30  4  0
 30 31  1  0
 31 32  4  0
 32 33  4  0
 33 34  4  0
 34 35  4  0
 35 36  4  0
 36 37  4  0
 37 38  4  0
 38 39  4  0
 39 40  4  0
 40 41  4  0
 41 42  4  0
 42 43  4  0
 43 44  4  0
 44 45  4  0
 45 46  4  0
 46 47  4  0
 47 48  4  0
 48 49  4  0
 49 50  4  0
 50 51  4  0
 51 52  4  0
 30 53  4  0
 13 54  4  0
 54 55  4  0
 55 56  4  0
 56 57  4  0
 57 58  4  0
 58 59  4  0
 59 60  4  0
 60 61  4  0
 61 62  4  0
 62  1  4  0
 61  4  4  0
 59  6  4  0
 57  8  4  0
 55 10  4  0
 53 14  4  0
 20 15  4  0
 53 22  4  0
 29 24  4  0
 52 31  4  0
 50 33  4  0
 48 35  4  0
 46 37  4  0
 44 39  4  0
  1 63  1  0
  2 64  1  0
  3 65  1  0
  7 66  1  0
  9 67  1  0
 11 68  1  0
 12 69  1  0
 16 70  1  0
 17 71  1  0
 18 72  1  0
 19 73  1  0
 21 74  1  0
 23 75  1  0
 25 76  1  0
 26 77  1  0
 27 78  1  0
 28 79  1  0
 32 80  1  0
 36 81  1  0
 38 82  1  0
 40 83  1  0
 41 84  1  0
 42 85  1  0
 43 86  1  0
 47 87  1  0
 49 88  1  0
 51 89  1  0
 52 90  1  0
 54 91  1  0
 58 92  1  0
 60 93  1  0
 62 94  1  0
M  END
