
     RDKit          3D

 94107  0  0  0  0  0  0  0  0999 V2000
    1.6338    5.5850   -4.9691 C   0  0  0  0  0  0  0  0  0  0  0  0
    1.7619    6.5608   -3.9876 C   0  0  0  0  0  0  0  0  0  0  0  0
    1.8563    6.1874   -2.6433 C   0  0  0  0  0  0  0  0  0  0  0  0
    1.8261    4.8561   -2.2495 C   0  0  0  0  0  0  0  0  0  0  0  0
    1.9209    4.5511   -0.9426 N   0  0  0  0  0  0  0  0  0  0  0  0
    1.8911    3.2611   -0.5666 C   0  0  0  0  0  0  0  0  0  0  0  0
    1.9929    2.9413    0.7781 C   0  0  0  0  0  0  0  0  0  0  0  0
    1.9629    1.6073    1.2273 C   0  0  0  0  0  0  0  0  0  0  0  0
    2.0682    1.2727    2.5811 C   0  0  0  0  0  0  0  0  0  0  0  0
    2.0102   -0.0664    2.9851 C   0  0  0  0  0  0  0  0  0  0  0  0
    2.1311   -0.4165    4.3407 C   0  0  0  0  0  0  0  0  0  0  0  0
    2.0767   -1.7486    4.7333 C   0  0  0  0  0  0  0  0  0  0  0  0
    1.8695   -2.7330    3.7742 C   0  0  0  0  0  0  0  0  0  0  0  0
    1.7159   -2.3964    2.4114 C   0  0  0  0  0  0  0  0  0  0  0  0
    1.5414   -3.4921    1.4209 C   0  0  0  0  0  0  0  0  0  0  0  0
    2.7612   -4.0737    0.8983 C   0  0  0  0  0  0  0  0  0  0  0  0
    4.0767   -3.6584    1.2493 C   0  0  0  0  0  0  0  0  0  0  0  0
    5.2239   -4.2564    0.7199 C   0  0  0  0  0  0  0  0  0  0  0  0
    5.0987   -5.2960   -0.1857 C   0  0  0  0  0  0  0  0  0  0  0  0
    3.8282   -5.7257   -0.5571 C   0  0  0  0  0  0  0  0  0  0  0  0
    2.6703   -5.1250   -0.0264 C   0  0  0  0  0  0  0  0  0  0  0  0
    1.4137   -5.5746   -0.4225 C   0  0  0  0  0  0  0  0  0  0  0  0
    0.2217   -5.0219    0.0635 C   0  0  0  0  0  0  0  0  0  0  0  0
   -0.9618   -5.5828   -0.4332 C   0  0  0  0  0  0  0  0  0  0  0  0
   -2.2249   -5.1458   -0.0441 C   0  0  0  0  0  0  0  0  0  0  0  0
   -3.3734   -5.7566   -0.5840 C   0  0  0  0  0  0  0  0  0  0  0  0
   -4.6501   -5.3427   -0.2165 C   0  0  0  0  0  0  0  0  0  0  0  0
   -4.7914   -4.3134    0.6982 C   0  0  0  0  0  0  0  0  0  0  0  0
   -3.6535   -3.7064    1.2372 C   0  0  0  0  0  0  0  0  0  0  0  0
   -2.3316   -4.0991    0.8846 C   0  0  0  0  0  0  0  0  0  0  0  0
   -1.1207   -3.5022    1.4120 C   0  0  0  0  0  0  0  0  0  0  0  0
   -1.3118   -2.4132    2.4085 C   0  0  0  0  0  0  0  0  0  0  0  0
   -1.3632   -2.7565    3.7765 C   0  0  0  0  0  0  0  0  0  0  0  0
   -1.5857   -1.7886    4.7483 C   0  0  0  0  0  0  0  0  0  0  0  0
   -1.7682   -0.4664    4.3641 C   0  0  0  0  0  0  0  0  0  0  0  0
   -1.7557   -0.1110    3.0050 C   0  0  0  0  0  0  0  0  0  0  0  0
   -1.9590    1.2171    2.6130 C   0  0  0  0  0  0  0  0  0  0  0  0
   -1.9780    1.5591    1.2575 C   0  0  0  0  0  0  0  0  0  0  0  0
   -2.1734    2.8833    0.8197 C   0  0  0  0  0  0  0  0  0  0  0  0
   -2.2032    3.2111   -0.5267 C   0  0  0  0  0  0  0  0  0  0  0  0
   -2.3967    4.4906   -0.8920 N   0  0  0  0  0  0  0  0  0  0  0  0
   -2.4302    4.8018   -2.2004 C   0  0  0  0  0  0  0  0  0  0  0  0
   -2.6305    6.1215   -2.5827 C   0  0  0  0  0  0  0  0  0  0  0  0
   -2.6731    6.5002   -3.9279 C   0  0  0  0  0  0  0  0  0  0  0  0
   -2.5121    5.5420   -4.9219 C   0  0  0  0  0  0  0  0  0  0  0  0
   -2.3097    4.2102   -4.5664 C   0  0  0  0  0  0  0  0  0  0  0  0
   -2.2682    3.8353   -3.2113 C   0  0  0  0  0  0  0  0  0  0  0  0
   -2.0677    2.5077   -2.8174 C   0  0  0  0  0  0  0  0  0  0  0  0
   -2.0340    2.1751   -1.4585 C   0  0  0  0  0  0  0  0  0  0  0  0
   -1.8400    0.8521   -1.0192 C   0  0  0  0  0  0  0  0  0  0  0  0
   -1.8034    0.5279    0.3273 C   0  0  0  0  0  0  0  0  0  0  0  0
   -1.6058   -0.7473    0.6939 N   0  0  0  0  0  0  0  0  0  0  0  0
   -1.5497   -1.0831    2.0023 C   0  0  0  0  0  0  0  0  0  0  0  0
    0.2137   -3.9603    1.0045 C   0  0  0  0  0  0  0  0  0  0  0  0
    1.8295   -1.0558    1.9957 C   0  0  0  0  0  0  0  0  0  0  0  0
    1.7782   -0.7262    0.6868 N   0  0  0  0  0  0  0  0  0  0  0  0
    1.8273    0.5590    0.3095 C   0  0  0  0  0  0  0  0  0  0  0  0
    1.7386    0.8753   -1.0360 C   0  0  0  0  0  0  0  0  0  0  0  0
    1.7649    2.2078   -1.4860 C   0  0  0  0  0  0  0  0  0  0  0  0
    1.6671    2.5334   -2.8435 C   0  0  0  0  0  0  0  0  0  0  0  0
    1.6965    3.8722   -3.2481 C   0  0  0  0  0  0  0  0  0  0  0  0
    1.6009    4.2414   -4.6021 C   0  0  0  0  0  0  0  0  0  0  0  0
    1.5598    5.8681   -6.0160 H   0  0  0  0  0  0  0  0  0  0  0  0
    1.7889    7.6125   -4.2607 H   0  0  0  0  0  0  0  0  0  0  0  0
    1.9562    6.9563   -1.8808 H   0  0  0  0  0  0  0  0  0  0  0  0
    2.1049    3.7545    1.4920 H   0  0  0  0  0  0  0  0  0  0  0  0
    2.1887    2.0597    3.3216 H   0  0  0  0  0  0  0  0  0  0  0  0
    2.2758    0.3512    5.0971 H   0  0  0  0  0  0  0  0  0  0  0  0
    2.1842   -2.0192    5.7801 H   0  0  0  0  0  0  0  0  0  0  0  0
    1.8226   -3.7767    4.0797 H   0  0  0  0  0  0  0  0  0  0  0  0
    4.2270   -2.8374    1.9472 H   0  0  0  0  0  0  0  0  0  0  0  0
    6.2067   -3.9000    1.0154 H   0  0  0  0  0  0  0  0  0  0  0  0
    5.9816   -5.7674   -0.6071 H   0  0  0  0  0  0  0  0  0  0  0  0
    3.7445   -6.5390   -1.2747 H   0  0  0  0  0  0  0  0  0  0  0  0
    1.3649   -6.3902   -1.1447 H   0  0  0  0  0  0  0  0  0  0  0  0
   -0.9008   -6.3964   -1.1567 H   0  0  0  0  0  0  0  0  0  0  0  0
   -3.2778   -6.5655   -1.3054 H   0  0  0  0  0  0  0  0  0  0  0  0
   -5.5259   -5.8195   -0.6465 H   0  0  0  0  0  0  0  0  0  0  0  0
   -5.7794   -3.9717    0.9937 H   0  0  0  0  0  0  0  0  0  0  0  0
   -3.8166   -2.8959    1.9442 H   0  0  0  0  0  0  0  0  0  0  0  0
   -1.2232   -3.7934    4.0771 H   0  0  0  0  0  0  0  0  0  0  0  0
   -1.6097   -2.0651    5.7985 H   0  0  0  0  0  0  0  0  0  0  0  0
   -1.9345    0.2864    5.1312 H   0  0  0  0  0  0  0  0  0  0  0  0
   -2.1050    1.9899    3.3639 H   0  0  0  0  0  0  0  0  0  0  0  0
   -2.3172    3.6813    1.5450 H   0  0  0  0  0  0  0  0  0  0  0  0
   -2.7570    6.8763   -1.8102 H   0  0  0  0  0  0  0  0  0  0  0  0
   -2.8318    7.5424   -4.1919 H   0  0  0  0  0  0  0  0  0  0  0  0
   -2.5439    5.8298   -5.9696 H   0  0  0  0  0  0  0  0  0  0  0  0
   -2.1846    3.4658   -5.3494 H   0  0  0  0  0  0  0  0  0  0  0  0
   -1.9373    1.7309   -3.5673 H   0  0  0  0  0  0  0  0  0  0  0  0
   -1.7091    0.0459   -1.7390 H   0  0  0  0  0  0  0  0  0  0  0  0
    1.6368    0.0552   -1.7446 H   0  0  0  0  0  0  0  0  0  0  0  0
    1.5674    1.7431   -3.5841 H   0  0  0  0  0  0  0  0  0  0  0  0
    1.5004    3.4832   -5.3754 H   0  0  0  0  0  0  0  0  0  0  0  0
  1  2  4  0
  2  3  4  0
  3  4  4  0
  4  5  4  0
  5  6  4  0
  6  7  4  0
  7  8  4  0
  8  9  4  0
  9 10  4  0
 10 11  4  0
 11 12  4  0
 12 13  4  0
 13 14  4  0
 14 15  1  0
 15 16  4  0
 16 17  4  0
 17 18  4  0
 18 19  4  0
 19 20  4  0
 20 21  4  0
 21 22  4  0
 22 23  4  0
 23 24  4  0
 24 25  4  0
 25 26  4  0
 26 27  4  0
 27 28  4  0
 28 29  4  0
 29 30  4  0
 30 31  4  0
 31 32  1  0
 32 33  4  0
 33 34  4  0
 34 35  4  0
 35 36  4  0
 36 37  4  0
 37 38  4  0
 38 39  4  0
 39 40  4  0
 40 41  4  0
 41 42  4  0
 42 43  4  0
 43 44  4  0
 44 45  4  0
 45 46  4  0
 46 47  4  0
 47 48  4  0
 48 49  4  0
 49 50  4  0
 50 51  4  0
 51 52  4  0
 52 53  4  0
 31 54  4  0
 14 55  4  0
 55 56  4  0
 56 57  4  0
 57 58  4  0
 58 59  4  0
 59 60  4  0
 60 61  4  0
 61 62  4  0
 62  1  4  0
 61  4  4  0
 59  6  4  0
 57  8  4  0
 55 10  4  0
 54 15  4  0
 21 16  4  0
 54 23  4  0
 30 25  4  0
 53 32  4  0
 53 36  4  0
 51 38  4  0
 49 40  4  0
 47 42  4  0
  1 63  1  0
  2 64  1  0
  3 65  1  0
  7 66  1  0
  9 67  1  0
 11 68  1  0
 12 69  1  0
 13 70  1  0
 17 71  1  0
 18 72  1  0
 19 73  1  0
 20 74  1  0
 22 75  1  0
 24 76  1  0
 26 77  1  0
 27 78  1  0
 28 79  1  0
 29 80  1  0
 33 81  1  0
 34 82  1  0
 35 83  1  0
 37 84  1  0
 39 85  1  0
 43 86  1  0
 44 87  1  0
 45 88  1  0
 46 89  1  0
 48 90  1  0
 50 91  1  0
 58 92  1  0
 60 93  1  0
 62 94  1  0
M  END
