
     RDKit          3D

 90103  0  0  0  0  0  0  0  0999 V2000
    3.1540    5.1961    2.5435 C   0  0  0  0  0  0  0  0  0  0  0  0
    3.6177    4.3007    3.4908 C   0  0  0  0  0  0  0  0  0  0  0  0
    3.5089    2.9262    3.2714 C   0  0  0  0  0  0  0  0  0  0  0  0
    2.9210    2.4250    2.0682 C   0  0  0  0  0  0  0  0  0  0  0  0
    2.4460    3.3339    1.0864 C   0  0  0  0  0  0  0  0  0  0  0  0
    2.5801    4.7184    1.3673 C   0  0  0  0  0  0  0  0  0  0  0  0
    1.8658    2.8315   -0.1234 C   0  0  0  0  0  0  0  0  0  0  0  0
    1.3694    3.6711   -1.1536 C   0  0  0  0  0  0  0  0  0  0  0  0
    0.8110    3.1709   -2.3273 C   0  0  0  0  0  0  0  0  0  0  0  0
    0.7265    1.8033   -2.5158 C   0  0  0  0  0  0  0  0  0  0  0  0
    1.1845    0.9282   -1.5296 C   0  0  0  0  0  0  0  0  0  0  0  0
    1.7633    1.4299   -0.3240 C   0  0  0  0  0  0  0  0  0  0  0  0
    2.2183    0.5224    0.6667 C   0  0  0  0  0  0  0  0  0  0  0  0
    2.0320   -0.8615    0.4116 C   0  0  0  0  0  0  0  0  0  0  0  0
    1.4203   -1.3571   -0.7505 C   0  0  0  0  0  0  0  0  0  0  0  0
    1.2687   -2.8157   -0.9536 C   0  0  0  0  0  0  0  0  0  0  0  0
    2.3819   -3.4897   -1.5856 C   0  0  0  0  0  0  0  0  0  0  0  0
    3.5614   -2.8450   -2.0529 C   0  0  0  0  0  0  0  0  0  0  0  0
    4.6119   -3.5419   -2.6562 C   0  0  0  0  0  0  0  0  0  0  0  0
    4.5224   -4.9146   -2.8138 C   0  0  0  0  0  0  0  0  0  0  0  0
    3.3845   -5.5795   -2.3664 C   0  0  0  0  0  0  0  0  0  0  0  0
    2.3236   -4.8816   -1.7582 C   0  0  0  0  0  0  0  0  0  0  0  0
    1.2017   -5.5762   -1.3122 C   0  0  0  0  0  0  0  0  0  0  0  0
    0.1110   -4.9431   -0.7018 C   0  0  0  0  0  0  0  0  0  0  0  0
   -0.9424   -5.7748   -0.2996 C   0  0  0  0  0  0  0  0  0  0  0  0
   -2.0949   -5.2882    0.3127 C   0  0  0  0  0  0  0  0  0  0  0  0
   -3.1154   -6.1801    0.6943 C   0  0  0  0  0  0  0  0  0  0  0  0
   -4.2830   -5.7228    1.2983 C   0  0  0  0  0  0  0  0  0  0  0  0
   -4.4433   -4.3662    1.5254 C   0  0  0  0  0  0  0  0  0  0  0  0
   -3.4325   -3.4775    1.1489 C   0  0  0  0  0  0  0  0  0  0  0  0
   -2.2240   -3.9075    0.5330 C   0  0  0  0  0  0  0  0  0  0  0  0
   -1.1491   -3.0296    0.1242 C   0  0  0  0  0  0  0  0  0  0  0  0
   -1.3728   -1.5812    0.3370 C   0  0  0  0  0  0  0  0  0  0  0  0
   -1.0402   -0.9668    1.5416 C   0  0  0  0  0  0  0  0  0  0  0  0
   -1.2601    0.4002    1.7334 C   0  0  0  0  0  0  0  0  0  0  0  0
   -1.8544    1.1945    0.7058 C   0  0  0  0  0  0  0  0  0  0  0  0
   -2.0294    2.5891    0.9069 C   0  0  0  0  0  0  0  0  0  0  0  0
   -1.6036    3.1225    2.1504 C   0  0  0  0  0  0  0  0  0  0  0  0
   -1.0329    2.3374    3.1490 C   0  0  0  0  0  0  0  0  0  0  0  0
   -0.8639    0.9806    2.9395 C   0  0  0  0  0  0  0  0  0  0  0  0
   -2.6068    3.3890   -0.1320 C   0  0  0  0  0  0  0  0  0  0  0  0
   -2.7983    4.7907   -0.0185 C   0  0  0  0  0  0  0  0  0  0  0  0
   -3.3603    5.5586   -1.0361 C   0  0  0  0  0  0  0  0  0  0  0  0
   -3.7553    4.9496   -2.2140 C   0  0  0  0  0  0  0  0  0  0  0  0
   -3.5905    3.5735   -2.3831 C   0  0  0  0  0  0  0  0  0  0  0  0
   -3.0136    2.7759   -1.3460 C   0  0  0  0  0  0  0  0  0  0  0  0
   -2.8490    1.3796   -1.5425 C   0  0  0  0  0  0  0  0  0  0  0  0
   -3.2856    0.8445   -2.7825 C   0  0  0  0  0  0  0  0  0  0  0  0
   -3.8495    1.6305   -3.7850 C   0  0  0  0  0  0  0  0  0  0  0  0
   -3.9992    2.9912   -3.5845 C   0  0  0  0  0  0  0  0  0  0  0  0
   -2.2514    0.5843   -0.5113 C   0  0  0  0  0  0  0  0  0  0  0  0
   -2.0032   -0.8069   -0.6496 C   0  0  0  0  0  0  0  0  0  0  0  0
    0.0754   -3.5395   -0.5023 C   0  0  0  0  0  0  0  0  0  0  0  0
    1.0387   -0.4467   -1.7326 C   0  0  0  0  0  0  0  0  0  0  0  0
    2.8154    1.0235    1.8688 C   0  0  0  0  0  0  0  0  0  0  0  0
    3.3153    0.1834    2.8981 C   0  0  0  0  0  0  0  0  0  0  0  0
    3.8900    0.6827    4.0650 C   0  0  0  0  0  0  0  0  0  0  0  0
    3.9850    2.0506    4.2492 C   0  0  0  0  0  0  0  0  0  0  0  0
    3.2367    6.2659    2.7151 H   0  0  0  0  0  0  0  0  0  0  0  0
    4.0639    4.6866    4.4045 H   0  0  0  0  0  0  0  0  0  0  0  0
    2.2331    5.4695    0.6641 H   0  0  0  0  0  0  0  0  0  0  0  0
    1.3974    4.7520   -1.0611 H   0  0  0  0  0  0  0  0  0  0  0  0
    0.4278    3.8503   -3.0831 H   0  0  0  0  0  0  0  0  0  0  0  0
    0.2704    1.4276   -3.4287 H   0  0  0  0  0  0  0  0  0  0  0  0
    2.3461   -1.6034    1.1404 H   0  0  0  0  0  0  0  0  0  0  0  0
    3.6785   -1.7671   -1.9507 H   0  0  0  0  0  0  0  0  0  0  0  0
    5.4933   -3.0058   -2.9983 H   0  0  0  0  0  0  0  0  0  0  0  0
    5.3328   -5.4678   -3.2804 H   0  0  0  0  0  0  0  0  0  0  0  0
    3.3310   -6.6587   -2.4954 H   0  0  0  0  0  0  0  0  0  0  0  0
    1.1795   -6.6581   -1.4485 H   0  0  0  0  0  0  0  0  0  0  0  0
   -0.8653   -6.8494   -0.4693 H   0  0  0  0  0  0  0  0  0  0  0  0
   -3.0071   -7.2488    0.5192 H   0  0  0  0  0  0  0  0  0  0  0  0
   -5.0615   -6.4234    1.5862 H   0  0  0  0  0  0  0  0  0  0  0  0
   -5.3496   -3.9905    1.9931 H   0  0  0  0  0  0  0  0  0  0  0  0
   -3.6055   -2.4210    1.3477 H   0  0  0  0  0  0  0  0  0  0  0  0
   -0.5784   -1.5622    2.3270 H   0  0  0  0  0  0  0  0  0  0  0  0
   -1.7025    4.1804    2.3725 H   0  0  0  0  0  0  0  0  0  0  0  0
   -0.7111    2.7917    4.0817 H   0  0  0  0  0  0  0  0  0  0  0  0
   -0.3976    0.3841    3.7199 H   0  0  0  0  0  0  0  0  0  0  0  0
   -2.5078    5.3263    0.8802 H   0  0  0  0  0  0  0  0  0  0  0  0
   -3.4883    6.6295   -0.9037 H   0  0  0  0  0  0  0  0  0  0  0  0
   -4.1943    5.5604   -2.9996 H   0  0  0  0  0  0  0  0  0  0  0  0
   -3.1968   -0.2159   -2.9989 H   0  0  0  0  0  0  0  0  0  0  0  0
   -4.1706    1.1753   -4.7180 H   0  0  0  0  0  0  0  0  0  0  0  0
   -4.4416    3.5932   -4.3750 H   0  0  0  0  0  0  0  0  0  0  0  0
   -2.2760   -1.3270   -1.5635 H   0  0  0  0  0  0  0  0  0  0  0  0
    0.5920   -0.8202   -2.6521 H   0  0  0  0  0  0  0  0  0  0  0  0
    3.2724   -0.8982    2.8109 H   0  0  0  0  0  0  0  0  0  0  0  0
    4.2616    0.0013    4.8254 H   0  0  0  0  0  0  0  0  0  0  0  0
    4.4364    2.4276    5.1643 H   0  0  0  0  0  0  0  0  0  0  0  0
  1  2  4  0
  2  3  4  0
  3  4  4  0
  4  5  4  0
  5  6  4  0
  5  7  4  0
  7  8  4  0
  8  9  4  0
  9 10  4  0
 10 11  4  0
 11 12  4  0
 12 13  4  0
 13 14  4  0
 14 15  4  0
 15 16  1  0
 16 17  4  0
 17 18  4  0
 18 19  4  0
 19 20  4  0
 20 21  4  0
 21 22  4  0
 22 23  4  0
 23 24  4  0
 24 25  4  0
 25 26  4  0
 26 27  4  0
 27 28  4  0
 28 29  4  0
 29 30  4  0
 30 31  4  0
 31 32  4  0
 32 33  1  0
 33 34  4  0
 34 35  4  0
 35 36  4  0
 36 37  4  0
 37 38  4  0
 38 39  4  0
 39 40  4  0
 37 41  4  0
 41 42  4  0
 42 43  4  0
 43 44  4  0
 44 45  4  0
 45 46  4  0
 46 47  4  0
 47 48  4  0
 48 49  4  0
 49 50  4  0
 47 51  4  0
 51 52  4  0
 32 53  4  0
 15 54  4  0
 13 55  4  0
 55 56  4  0
 56 57  4  0
 57 58  4  0
  6  1  4  0
 12  7  4  0
 53 16  4  0
 58  3  4  0
 55  4  4  0
 54 11  4  0
 22 17  4  0
 53 24  4  0
 31 26  4  0
 52 33  4  0
 40 35  4  0
 46 41  4  0
 51 36  4  0
 50 45  4  0
  1 59  1  0
  2 60  1  0
  6 61  1  0
  8 62  1  0
  9 63  1  0
 10 64  1  0
 14 65  1  0
 18 66  1  0
 19 67  1  0
 20 68  1  0
 21 69  1  0
 23 70  1  0
 25 71  1  0
 27 72  1  0
 28 73  1  0
 29 74  1  0
 30 75  1  0
 34 76  1  0
 38 77  1  0
 39 78  1  0
 40 79  1  0
 42 80  1  0
 43 81  1  0
 44 82  1  0
 48 83  1  0
 49 84  1  0
 50 85  1  0
 52 86  1  0
 54 87  1  0
 56 88  1  0
 57 89  1  0
 58 90  1  0
M  END
