
     RDKit          3D

 96109  0  0  0  0  0  0  0  0999 V2000
   -3.6376    7.2211    1.3431 C   0  0  0  0  0  0  0  0  0  0  0  0
   -4.3083    6.3053    2.1453 C   0  0  0  0  0  0  0  0  0  0  0  0
   -4.0968    4.9348    1.9637 C   0  0  0  0  0  0  0  0  0  0  0  0
   -3.2272    4.4500    0.9956 C   0  0  0  0  0  0  0  0  0  0  0  0
   -3.0584    3.1214    0.8633 N   0  0  0  0  0  0  0  0  0  0  0  0
   -2.2160    2.6546   -0.0765 C   0  0  0  0  0  0  0  0  0  0  0  0
   -2.0523    1.2835   -0.2296 C   0  0  0  0  0  0  0  0  0  0  0  0
   -1.1934    0.7272   -1.1972 C   0  0  0  0  0  0  0  0  0  0  0  0
   -1.0309   -0.6640   -1.3349 C   0  0  0  0  0  0  0  0  0  0  0  0
   -0.1602   -1.2400   -2.2938 C   0  0  0  0  0  0  0  0  0  0  0  0
    0.5413   -0.3574   -3.1490 C   0  0  0  0  0  0  0  0  0  0  0  0
    0.3874    1.0321   -3.0052 C   0  0  0  0  0  0  0  0  0  0  0  0
   -0.4690    1.5836   -2.0397 C   0  0  0  0  0  0  0  0  0  0  0  0
   -0.6228    2.9703   -1.8953 C   0  0  0  0  0  0  0  0  0  0  0  0
   -1.4939    3.5054   -0.9300 C   0  0  0  0  0  0  0  0  0  0  0  0
   -1.6758    4.8855   -0.7862 C   0  0  0  0  0  0  0  0  0  0  0  0
   -2.5509    5.3820    0.1861 C   0  0  0  0  0  0  0  0  0  0  0  0
   -2.7595    6.7622    0.3636 C   0  0  0  0  0  0  0  0  0  0  0  0
    1.3848   -0.8710   -4.1457 C   0  0  0  0  0  0  0  0  0  0  0  0
    1.5363   -2.2430   -4.3204 C   0  0  0  0  0  0  0  0  0  0  0  0
    0.8624   -3.1235   -3.4817 C   0  0  0  0  0  0  0  0  0  0  0  0
    0.0358   -2.6487   -2.4451 C   0  0  0  0  0  0  0  0  0  0  0  0
   -0.7004   -3.6432   -1.6180 C   0  0  0  0  0  0  0  0  0  0  0  0
   -2.0169   -4.0132   -2.0969 C   0  0  0  0  0  0  0  0  0  0  0  0
   -2.6058   -3.5392   -3.3026 C   0  0  0  0  0  0  0  0  0  0  0  0
   -3.8835   -3.9225   -3.7197 C   0  0  0  0  0  0  0  0  0  0  0  0
   -4.6240   -4.7974   -2.9431 C   0  0  0  0  0  0  0  0  0  0  0  0
   -4.0817   -5.2807   -1.7560 C   0  0  0  0  0  0  0  0  0  0  0  0
   -2.7948   -4.8965   -1.3328 C   0  0  0  0  0  0  0  0  0  0  0  0
   -2.2834   -5.3893   -0.1354 C   0  0  0  0  0  0  0  0  0  0  0  0
   -1.0077   -5.0578    0.3386 C   0  0  0  0  0  0  0  0  0  0  0  0
   -0.6373   -5.6338    1.5605 C   0  0  0  0  0  0  0  0  0  0  0  0
    0.6006   -5.4071    2.1558 C   0  0  0  0  0  0  0  0  0  0  0  0
    0.9043   -6.0105    3.3912 C   0  0  0  0  0  0  0  0  0  0  0  0
    2.1362   -5.8108    4.0068 C   0  0  0  0  0  0  0  0  0  0  0  0
    3.0796   -5.0064    3.3907 C   0  0  0  0  0  0  0  0  0  0  0  0
    2.7818   -4.4062    2.1641 C   0  0  0  0  0  0  0  0  0  0  0  0
    1.5323   -4.5828    1.5062 C   0  0  0  0  0  0  0  0  0  0  0  0
    1.1734   -3.9815    0.2379 C   0  0  0  0  0  0  0  0  0  0  0  0
    2.2392   -3.1816   -0.4255 C   0  0  0  0  0  0  0  0  0  0  0  0
    3.1367   -3.8584   -1.2763 C   0  0  0  0  0  0  0  0  0  0  0  0
    4.1933   -3.1890   -1.8839 C   0  0  0  0  0  0  0  0  0  0  0  0
    4.3736   -1.8293   -1.6506 C   0  0  0  0  0  0  0  0  0  0  0  0
    3.5154   -1.1241   -0.7939 C   0  0  0  0  0  0  0  0  0  0  0  0
    3.7107    0.2501   -0.5757 C   0  0  0  0  0  0  0  0  0  0  0  0
    2.8667    0.9859    0.2696 C   0  0  0  0  0  0  0  0  0  0  0  0
    3.0260    2.3667    0.4565 C   0  0  0  0  0  0  0  0  0  0  0  0
    2.1431    3.0881    1.2799 C   0  0  0  0  0  0  0  0  0  0  0  0
    2.2631    4.4702    1.4602 C   0  0  0  0  0  0  0  0  0  0  0  0
    1.3601    5.1524    2.2825 C   0  0  0  0  0  0  0  0  0  0  0  0
    1.4541    6.5398    2.4943 C   0  0  0  0  0  0  0  0  0  0  0  0
    0.5450    7.1880    3.3275 C   0  0  0  0  0  0  0  0  0  0  0  0
   -0.4579    6.4543    3.9498 C   0  0  0  0  0  0  0  0  0  0  0  0
   -0.5491    5.0760    3.7315 C   0  0  0  0  0  0  0  0  0  0  0  0
    0.3416    4.4041    2.9032 C   0  0  0  0  0  0  0  0  0  0  0  0
    0.2107    3.0778    2.7250 N   0  0  0  0  0  0  0  0  0  0  0  0
    1.0952    2.4301    1.9458 C   0  0  0  0  0  0  0  0  0  0  0  0
    0.9673    1.0604    1.7739 C   0  0  0  0  0  0  0  0  0  0  0  0
    1.8241    0.3254    0.9378 C   0  0  0  0  0  0  0  0  0  0  0  0
    1.6394   -1.0513    0.7333 C   0  0  0  0  0  0  0  0  0  0  0  0
    2.4487   -1.7983   -0.1519 C   0  0  0  0  0  0  0  0  0  0  0  0
   -0.1419   -4.1914   -0.3772 C   0  0  0  0  0  0  0  0  0  0  0  0
   -3.7972    8.2877    1.4794 H   0  0  0  0  0  0  0  0  0  0  0  0
   -4.9962    6.6496    2.9132 H   0  0  0  0  0  0  0  0  0  0  0  0
   -4.6246    4.2241    2.5953 H   0  0  0  0  0  0  0  0  0  0  0  0
   -2.6106    0.6299    0.4371 H   0  0  0  0  0  0  0  0  0  0  0  0
   -1.5912   -1.3151   -0.6655 H   0  0  0  0  0  0  0  0  0  0  0  0
    0.9431    1.6991   -3.6617 H   0  0  0  0  0  0  0  0  0  0  0  0
   -0.0517    3.6418   -2.5325 H   0  0  0  0  0  0  0  0  0  0  0  0
   -1.1364    5.5734   -1.4323 H   0  0  0  0  0  0  0  0  0  0  0  0
   -2.2381    7.4844   -0.2602 H   0  0  0  0  0  0  0  0  0  0  0  0
    1.9289   -0.1988   -4.8053 H   0  0  0  0  0  0  0  0  0  0  0  0
    2.1848   -2.6261   -5.1030 H   0  0  0  0  0  0  0  0  0  0  0  0
    0.9851   -4.1948   -3.6278 H   0  0  0  0  0  0  0  0  0  0  0  0
   -2.0648   -2.8469   -3.9455 H   0  0  0  0  0  0  0  0  0  0  0  0
   -4.2910   -3.5309   -4.6478 H   0  0  0  0  0  0  0  0  0  0  0  0
   -5.6192   -5.1010   -3.2552 H   0  0  0  0  0  0  0  0  0  0  0  0
   -4.6776   -5.9647   -1.1549 H   0  0  0  0  0  0  0  0  0  0  0  0
   -2.9083   -6.0650    0.4497 H   0  0  0  0  0  0  0  0  0  0  0  0
   -1.3420   -6.2885    2.0748 H   0  0  0  0  0  0  0  0  0  0  0  0
    0.1729   -6.6446    3.8881 H   0  0  0  0  0  0  0  0  0  0  0  0
    2.3550   -6.2814    4.9610 H   0  0  0  0  0  0  0  0  0  0  0  0
    4.0470   -4.8381    3.8563 H   0  0  0  0  0  0  0  0  0  0  0  0
    3.5557   -3.7811    1.7218 H   0  0  0  0  0  0  0  0  0  0  0  0
    3.0038   -4.9221   -1.4638 H   0  0  0  0  0  0  0  0  0  0  0  0
    4.8697   -3.7246   -2.5440 H   0  0  0  0  0  0  0  0  0  0  0  0
    5.1967   -1.3195   -2.1462 H   0  0  0  0  0  0  0  0  0  0  0  0
    4.5245    0.7601   -1.0876 H   0  0  0  0  0  0  0  0  0  0  0  0
    3.8308    2.8894   -0.0560 H   0  0  0  0  0  0  0  0  0  0  0  0
    3.0601    5.0152    0.9610 H   0  0  0  0  0  0  0  0  0  0  0  0
    2.2382    7.1200    2.0135 H   0  0  0  0  0  0  0  0  0  0  0  0
    0.6209    8.2597    3.4919 H   0  0  0  0  0  0  0  0  0  0  0  0
   -1.1713    6.9463    4.6060 H   0  0  0  0  0  0  0  0  0  0  0  0
   -1.3350    4.5093    4.2255 H   0  0  0  0  0  0  0  0  0  0  0  0
    0.1482    0.5592    2.2864 H   0  0  0  0  0  0  0  0  0  0  0  0
    0.8173   -1.5443    1.2500 H   0  0  0  0  0  0  0  0  0  0  0  0
  1  2  4  0
  2  3  4  0
  3  4  4  0
  4  5  4  0
  5  6  4  0
  6  7  4  0
  7  8  4  0
  8  9  4  0
  9 10  4  0
 10 11  4  0
 11 12  4  0
 12 13  4  0
 13 14  4  0
 14 15  4  0
 15 16  4  0
 16 17  4  0
 17 18  4  0
 11 19  4  0
 19 20  4  0
 20 21  4  0
 21 22  4  0
 22 23  1  0
 23 24  4  0
 24 25  4  0
 25 26  4  0
 26 27  4  0
 27 28  4  0
 28 29  4  0
 29 30  4  0
 30 31  4  0
 31 32  4  0
 32 33  4  0
 33 34  4  0
 34 35  4  0
 35 36  4  0
 36 37  4  0
 37 38  4  0
 38 39  4  0
 39 40  1  0
 40 41  4  0
 41 42  4  0
 42 43  4  0
 43 44  4  0
 44 45  4  0
 45 46  4  0
 46 47  4  0
 47 48  4  0
 48 49  4  0
 49 50  4  0
 50 51  4  0
 51 52  4  0
 52 53  4  0
 53 54  4  0
 54 55  4  0
 55 56  4  0
 56 57  4  0
 57 58  4  0
 58 59  4  0
 59 60  4  0
 60 61  4  0
 39 62  4  0
 18  1  4  0
 62 23  4  0
 17  4  4  0
 29 24  4  0
 62 31  4  0
 15  6  4  0
 38 33  4  0
 61 40  4  0
 13  8  4  0
 61 44  4  0
 22 10  4  0
 59 46  4  0
 57 48  4  0
 55 50  4  0
  1 63  1  0
  2 64  1  0
  3 65  1  0
  7 66  1  0
  9 67  1  0
 12 68  1  0
 14 69  1  0
 16 70  1  0
 18 71  1  0
 19 72  1  0
 20 73  1  0
 21 74  1  0
 25 75  1  0
 26 76  1  0
 27 77  1  0
 28 78  1  0
 30 79  1  0
 32 80  1  0
 34 81  1  0
 35 82  1  0
 36 83  1  0
 37 84  1  0
 41 85  1  0
 42 86  1  0
 43 87  1  0
 45 88  1  0
 47 89  1  0
 49 90  1  0
 51 91  1  0
 52 92  1  0
 53 93  1  0
 54 94  1  0
 58 95  1  0
 60 96  1  0
M  END
