
     RDKit          3D

 96109  0  0  0  0  0  0  0  0999 V2000
   -1.0300    4.8946   -3.6543 C   0  0  0  0  0  0  0  0  0  0  0  0
   -1.2662    5.7949   -2.6224 C   0  0  0  0  0  0  0  0  0  0  0  0
   -1.5366    5.3220   -1.3344 C   0  0  0  0  0  0  0  0  0  0  0  0
   -1.5657    3.9637   -1.0456 C   0  0  0  0  0  0  0  0  0  0  0  0
   -1.8243    3.5573    0.2080 N   0  0  0  0  0  0  0  0  0  0  0  0
   -1.8171    2.2431    0.4882 C   0  0  0  0  0  0  0  0  0  0  0  0
   -2.1018    1.8692    1.7880 C   0  0  0  0  0  0  0  0  0  0  0  0
   -2.1692    0.5312    2.1943 C   0  0  0  0  0  0  0  0  0  0  0  0
   -2.5189    0.2173    3.5198 C   0  0  0  0  0  0  0  0  0  0  0  0
   -2.6356   -1.1099    3.9575 C   0  0  0  0  0  0  0  0  0  0  0  0
   -3.0062   -1.4228    5.2764 C   0  0  0  0  0  0  0  0  0  0  0  0
   -3.1184   -2.7508    5.6907 C   0  0  0  0  0  0  0  0  0  0  0  0
   -2.8600   -3.7815    4.7928 C   0  0  0  0  0  0  0  0  0  0  0  0
   -2.4925   -3.4843    3.4796 C   0  0  0  0  0  0  0  0  0  0  0  0
   -2.3778   -2.1513    3.0488 C   0  0  0  0  0  0  0  0  0  0  0  0
   -2.0111   -1.8307    1.7300 C   0  0  0  0  0  0  0  0  0  0  0  0
   -1.8968   -0.4931    1.2671 C   0  0  0  0  0  0  0  0  0  0  0  0
   -1.5409   -0.1324   -0.0750 C   0  0  0  0  0  0  0  0  0  0  0  0
   -1.2798   -1.2176   -1.0728 C   0  0  0  0  0  0  0  0  0  0  0  0
   -2.4378   -1.7249   -1.7789 C   0  0  0  0  0  0  0  0  0  0  0  0
   -3.7395   -1.1542   -1.7200 C   0  0  0  0  0  0  0  0  0  0  0  0
   -4.8267   -1.6855   -2.4195 C   0  0  0  0  0  0  0  0  0  0  0  0
   -4.6532   -2.8148   -3.2018 C   0  0  0  0  0  0  0  0  0  0  0  0
   -3.3961   -3.4079   -3.2730 C   0  0  0  0  0  0  0  0  0  0  0  0
   -2.2987   -2.8768   -2.5686 C   0  0  0  0  0  0  0  0  0  0  0  0
   -1.0626   -3.5163   -2.6258 C   0  0  0  0  0  0  0  0  0  0  0  0
    0.0732   -3.0332   -1.9631 C   0  0  0  0  0  0  0  0  0  0  0  0
    1.2392   -3.8002   -2.0882 C   0  0  0  0  0  0  0  0  0  0  0  0
    2.4516   -3.4294   -1.5114 C   0  0  0  0  0  0  0  0  0  0  0  0
    3.5828   -4.2542   -1.6643 C   0  0  0  0  0  0  0  0  0  0  0  0
    4.8167   -3.8908   -1.1325 C   0  0  0  0  0  0  0  0  0  0  0  0
    4.9322   -2.6943   -0.4451 C   0  0  0  0  0  0  0  0  0  0  0  0
    3.8118   -1.8730   -0.2909 C   0  0  0  0  0  0  0  0  0  0  0  0
    2.5329   -2.2160   -0.8104 C   0  0  0  0  0  0  0  0  0  0  0  0
    1.3432   -1.3992   -0.6853 C   0  0  0  0  0  0  0  0  0  0  0  0
    1.5493   -0.0173   -0.1465 C   0  0  0  0  0  0  0  0  0  0  0  0
    1.5400    0.2412    1.2581 C   0  0  0  0  0  0  0  0  0  0  0  0
    1.3265   -0.7504    2.2467 C   0  0  0  0  0  0  0  0  0  0  0  0
    1.3120   -0.4560    3.6212 C   0  0  0  0  0  0  0  0  0  0  0  0
    1.0799   -1.4509    4.5849 C   0  0  0  0  0  0  0  0  0  0  0  0
    1.0585   -1.1371    5.9442 C   0  0  0  0  0  0  0  0  0  0  0  0
    1.2707    0.1742    6.3577 C   0  0  0  0  0  0  0  0  0  0  0  0
    1.5052    1.1727    5.4119 C   0  0  0  0  0  0  0  0  0  0  0  0
    1.5251    0.8700    4.0403 C   0  0  0  0  0  0  0  0  0  0  0  0
    1.7534    1.8593    3.0745 C   0  0  0  0  0  0  0  0  0  0  0  0
    1.7723    1.5587    1.7023 C   0  0  0  0  0  0  0  0  0  0  0  0
    2.0375    2.5725    0.7726 C   0  0  0  0  0  0  0  0  0  0  0  0
    2.1182    2.3395   -0.5869 C   0  0  0  0  0  0  0  0  0  0  0  0
    2.4358    3.3791   -1.3802 N   0  0  0  0  0  0  0  0  0  0  0  0
    2.5449    3.1942   -2.7053 C   0  0  0  0  0  0  0  0  0  0  0  0
    2.8646    4.2677   -3.5279 C   0  0  0  0  0  0  0  0  0  0  0  0
    3.0029    4.1212   -4.9124 C   0  0  0  0  0  0  0  0  0  0  0  0
    2.8129    2.8746   -5.4970 C   0  0  0  0  0  0  0  0  0  0  0  0
    2.4836    1.7844   -4.6941 C   0  0  0  0  0  0  0  0  0  0  0  0
    2.3491    1.9405   -3.3016 C   0  0  0  0  0  0  0  0  0  0  0  0
    2.0173    0.8706   -2.4622 C   0  0  0  0  0  0  0  0  0  0  0  0
    1.8838    1.0391   -1.0647 C   0  0  0  0  0  0  0  0  0  0  0  0
    0.0442   -1.8341   -1.2090 C   0  0  0  0  0  0  0  0  0  0  0  0
   -1.5546    1.2441   -0.4670 C   0  0  0  0  0  0  0  0  0  0  0  0
   -1.3316    1.6954   -1.7839 C   0  0  0  0  0  0  0  0  0  0  0  0
   -1.3233    3.0600   -2.0915 C   0  0  0  0  0  0  0  0  0  0  0  0
   -1.0650    3.5276   -3.3926 C   0  0  0  0  0  0  0  0  0  0  0  0
   -0.8029    5.2513   -4.6555 H   0  0  0  0  0  0  0  0  0  0  0  0
   -1.2328    6.8643   -2.8107 H   0  0  0  0  0  0  0  0  0  0  0  0
   -1.7183    6.0316   -0.5311 H   0  0  0  0  0  0  0  0  0  0  0  0
   -2.3003    2.6621    2.5072 H   0  0  0  0  0  0  0  0  0  0  0  0
   -2.7087    1.0241    4.2262 H   0  0  0  0  0  0  0  0  0  0  0  0
   -3.2083   -0.6289    5.9920 H   0  0  0  0  0  0  0  0  0  0  0  0
   -3.4051   -2.9779    6.7142 H   0  0  0  0  0  0  0  0  0  0  0  0
   -2.9443   -4.8163    5.1130 H   0  0  0  0  0  0  0  0  0  0  0  0
   -2.2971   -4.3025    2.7898 H   0  0  0  0  0  0  0  0  0  0  0  0
   -1.8161   -2.6536    1.0446 H   0  0  0  0  0  0  0  0  0  0  0  0
   -3.9287   -0.2677   -1.1172 H   0  0  0  0  0  0  0  0  0  0  0  0
   -5.8024   -1.2124   -2.3454 H   0  0  0  0  0  0  0  0  0  0  0  0
   -5.4914   -3.2378   -3.7489 H   0  0  0  0  0  0  0  0  0  0  0  0
   -3.2787   -4.3008   -3.8840 H   0  0  0  0  0  0  0  0  0  0  0  0
   -0.9843   -4.4306   -3.2152 H   0  0  0  0  0  0  0  0  0  0  0  0
    1.2047   -4.7299   -2.6576 H   0  0  0  0  0  0  0  0  0  0  0  0
    3.5107   -5.1938   -2.2091 H   0  0  0  0  0  0  0  0  0  0  0  0
    5.6809   -4.5372   -1.2590 H   0  0  0  0  0  0  0  0  0  0  0  0
    5.8879   -2.3914   -0.0252 H   0  0  0  0  0  0  0  0  0  0  0  0
    3.9547   -0.9445    0.2593 H   0  0  0  0  0  0  0  0  0  0  0  0
    1.1524   -1.7810    1.9418 H   0  0  0  0  0  0  0  0  0  0  0  0
    0.8958   -2.4785    4.2789 H   0  0  0  0  0  0  0  0  0  0  0  0
    0.8640   -1.9168    6.6756 H   0  0  0  0  0  0  0  0  0  0  0  0
    1.2491    0.4229    7.4151 H   0  0  0  0  0  0  0  0  0  0  0  0
    1.6685    2.1925    5.7527 H   0  0  0  0  0  0  0  0  0  0  0  0
    1.9239    2.8851    3.3980 H   0  0  0  0  0  0  0  0  0  0  0  0
    2.2105    3.5910    1.1175 H   0  0  0  0  0  0  0  0  0  0  0  0
    3.0079    5.2458   -3.0745 H   0  0  0  0  0  0  0  0  0  0  0  0
    3.2611    4.9809   -5.5262 H   0  0  0  0  0  0  0  0  0  0  0  0
    2.9206    2.7517   -6.5718 H   0  0  0  0  0  0  0  0  0  0  0  0
    2.3355    0.8105   -5.1550 H   0  0  0  0  0  0  0  0  0  0  0  0
    1.8629   -0.1086   -2.9093 H   0  0  0  0  0  0  0  0  0  0  0  0
   -1.1395    0.9790   -2.5790 H   0  0  0  0  0  0  0  0  0  0  0  0
   -0.8657    2.8278   -4.2006 H   0  0  0  0  0  0  0  0  0  0  0  0
  1  2  4  0
  2  3  4  0
  3  4  4  0
  4  5  4  0
  5  6  4  0
  6  7  4  0
  7  8  4  0
  8  9  4  0
  9 10  4  0
 10 11  4  0
 11 12  4  0
 12 13  4  0
 13 14  4  0
 14 15  4  0
 15 16  4  0
 16 17  4  0
 17 18  4  0
 18 19  1  0
 19 20  4  0
 20 21  4  0
 21 22  4  0
 22 23  4  0
 23 24  4  0
 24 25  4  0
 25 26  4  0
 26 27  4  0
 27 28  4  0
 28 29  4  0
 29 30  4  0
 30 31  4  0
 31 32  4  0
 32 33  4  0
 33 34  4  0
 34 35  4  0
 35 36  1  0
 36 37  4  0
 37 38  4  0
 38 39  4  0
 39 40  4  0
 40 41  4  0
 41 42  4  0
 42 43  4  0
 43 44  4  0
 44 45  4  0
 45 46  4  0
 46 47  4  0
 47 48  4  0
 48 49  4  0
 49 50  4  0
 50 51  4  0
 51 52  4  0
 52 53  4  0
 53 54  4  0
 54 55  4  0
 55 56  4  0
 56 57  4  0
 35 58  4  0
 18 59  4  0
 59 60  4  0
 60 61  4  0
 61 62  4  0
 62  1  4  0
 61  4  4  0
 59  6  4  0
 17  8  4  0
 58 19  4  0
 15 10  4  0
 25 20  4  0
 58 27  4  0
 34 29  4  0
 57 36  4  0
 46 37  4  0
 57 48  4  0
 44 39  4  0
 55 50  4  0
  1 63  1  0
  2 64  1  0
  3 65  1  0
  7 66  1  0
  9 67  1  0
 11 68  1  0
 12 69  1  0
 13 70  1  0
 14 71  1  0
 16 72  1  0
 21 73  1  0
 22 74  1  0
 23 75  1  0
 24 76  1  0
 26 77  1  0
 28 78  1  0
 30 79  1  0
 31 80  1  0
 32 81  1  0
 33 82  1  0
 38 83  1  0
 40 84  1  0
 41 85  1  0
 42 86  1  0
 43 87  1  0
 45 88  1  0
 47 89  1  0
 51 90  1  0
 52 91  1  0
 53 92  1  0
 54 93  1  0
 56 94  1  0
 60 95  1  0
 62 96  1  0
M  END
