
     RDKit          3D

 96109  0  0  0  0  0  0  0  0999 V2000
  -10.5813    2.9876   -1.1063 C   0  0  0  0  0  0  0  0  0  0  0  0
   -9.4045    2.9915   -1.8570 C   0  0  0  0  0  0  0  0  0  0  0  0
   -8.2841    2.2533   -1.4408 C   0  0  0  0  0  0  0  0  0  0  0  0
   -7.0925    2.2466   -2.1848 C   0  0  0  0  0  0  0  0  0  0  0  0
   -5.9735    1.5076   -1.7655 C   0  0  0  0  0  0  0  0  0  0  0  0
   -4.7811    1.4958   -2.5030 C   0  0  0  0  0  0  0  0  0  0  0  0
   -3.6686    0.7551   -2.0647 C   0  0  0  0  0  0  0  0  0  0  0  0
   -2.4672    0.7291   -2.7786 C   0  0  0  0  0  0  0  0  0  0  0  0
   -1.3770   -0.0073   -2.3027 C   0  0  0  0  0  0  0  0  0  0  0  0
   -0.1671   -0.0364   -3.0164 C   0  0  0  0  0  0  0  0  0  0  0  0
    0.9135   -0.7671   -2.5406 C   0  0  0  0  0  0  0  0  0  0  0  0
    0.7904   -1.4616   -1.3440 C   0  0  0  0  0  0  0  0  0  0  0  0
   -0.4115   -1.4296   -0.6040 C   0  0  0  0  0  0  0  0  0  0  0  0
   -0.4920   -2.2459    0.6372 C   0  0  0  0  0  0  0  0  0  0  0  0
   -0.9668   -3.6041    0.4765 C   0  0  0  0  0  0  0  0  0  0  0  0
   -1.4281   -4.1645   -0.7476 C   0  0  0  0  0  0  0  0  0  0  0  0
   -1.8740   -5.4850   -0.8522 C   0  0  0  0  0  0  0  0  0  0  0  0
   -1.8734   -6.2987    0.2679 C   0  0  0  0  0  0  0  0  0  0  0  0
   -1.4269   -5.7862    1.4823 C   0  0  0  0  0  0  0  0  0  0  0  0
   -0.9770   -4.4568    1.5916 C   0  0  0  0  0  0  0  0  0  0  0  0
   -0.5236   -3.9785    2.8183 C   0  0  0  0  0  0  0  0  0  0  0  0
   -0.0689   -2.6660    2.9978 C   0  0  0  0  0  0  0  0  0  0  0  0
    0.3657   -2.3322    4.2871 C   0  0  0  0  0  0  0  0  0  0  0  0
    0.8351   -1.0638    4.6187 C   0  0  0  0  0  0  0  0  0  0  0  0
    1.2637   -0.7966    5.9334 C   0  0  0  0  0  0  0  0  0  0  0  0
    1.7256    0.4643    6.2996 C   0  0  0  0  0  0  0  0  0  0  0  0
    1.7615    1.4732    5.3521 C   0  0  0  0  0  0  0  0  0  0  0  0
    1.3370    1.2118    4.0461 C   0  0  0  0  0  0  0  0  0  0  0  0
    0.8628   -0.0646    3.6332 C   0  0  0  0  0  0  0  0  0  0  0  0
    0.4117   -0.3862    2.2952 C   0  0  0  0  0  0  0  0  0  0  0  0
    0.3784    0.7414    1.3262 C   0  0  0  0  0  0  0  0  0  0  0  0
    1.5184    1.1088    0.5855 C   0  0  0  0  0  0  0  0  0  0  0  0
    2.6772    0.4177    0.6934 N   0  0  0  0  0  0  0  0  0  0  0  0
    3.7469    0.7688   -0.0361 C   0  0  0  0  0  0  0  0  0  0  0  0
    4.9204    0.0382    0.0855 C   0  0  0  0  0  0  0  0  0  0  0  0
    6.0769    0.3466   -0.6524 C   0  0  0  0  0  0  0  0  0  0  0  0
    7.2579   -0.4024   -0.5153 C   0  0  0  0  0  0  0  0  0  0  0  0
    8.4109   -0.0929   -1.2555 C   0  0  0  0  0  0  0  0  0  0  0  0
    9.5919   -0.8410   -1.1194 C   0  0  0  0  0  0  0  0  0  0  0  0
   10.7293   -0.5213   -1.8624 C   0  0  0  0  0  0  0  0  0  0  0  0
   10.7010    0.5494   -2.7505 C   0  0  0  0  0  0  0  0  0  0  0  0
    9.5350    1.3024   -2.8968 C   0  0  0  0  0  0  0  0  0  0  0  0
    8.3821    0.9934   -2.1560 C   0  0  0  0  0  0  0  0  0  0  0  0
    7.2011    1.7419   -2.2914 C   0  0  0  0  0  0  0  0  0  0  0  0
    6.0492    1.4308   -1.5495 C   0  0  0  0  0  0  0  0  0  0  0  0
    4.8676    2.1751   -1.6785 C   0  0  0  0  0  0  0  0  0  0  0  0
    3.7246    1.8507   -0.9268 C   0  0  0  0  0  0  0  0  0  0  0  0
    2.5374    2.5809   -1.0324 C   0  0  0  0  0  0  0  0  0  0  0  0
    1.4171    2.2233   -0.2747 C   0  0  0  0  0  0  0  0  0  0  0  0
    0.2227    2.9570   -0.3720 C   0  0  0  0  0  0  0  0  0  0  0  0
   -0.8863    2.6001    0.3835 C   0  0  0  0  0  0  0  0  0  0  0  0
   -0.8067    1.5021    1.2304 C   0  0  0  0  0  0  0  0  0  0  0  0
   -0.0491   -1.7285    1.9341 C   0  0  0  0  0  0  0  0  0  0  0  0
   -1.5235   -0.7142   -1.0895 C   0  0  0  0  0  0  0  0  0  0  0  0
   -2.6973   -0.7004   -0.4160 N   0  0  0  0  0  0  0  0  0  0  0  0
   -3.7360    0.0117   -0.8783 C   0  0  0  0  0  0  0  0  0  0  0  0
   -4.9215    0.0250   -0.1582 C   0  0  0  0  0  0  0  0  0  0  0  0
   -6.0455    0.7592   -0.5757 C   0  0  0  0  0  0  0  0  0  0  0  0
   -7.2371    0.7637    0.1684 C   0  0  0  0  0  0  0  0  0  0  0  0
   -8.3574    1.5015   -0.2485 C   0  0  0  0  0  0  0  0  0  0  0  0
   -9.5488    1.5077    0.4955 C   0  0  0  0  0  0  0  0  0  0  0  0
  -10.6535    2.2463    0.0689 C   0  0  0  0  0  0  0  0  0  0  0  0
  -11.4406    3.5632   -1.4403 H   0  0  0  0  0  0  0  0  0  0  0  0
   -9.3687    3.5772   -2.7729 H   0  0  0  0  0  0  0  0  0  0  0  0
   -7.0355    2.8258   -3.1044 H   0  0  0  0  0  0  0  0  0  0  0  0
   -4.7125    2.0692   -3.4251 H   0  0  0  0  0  0  0  0  0  0  0  0
   -2.3788    1.2884   -3.7068 H   0  0  0  0  0  0  0  0  0  0  0  0
   -0.0590    0.5146   -3.9475 H   0  0  0  0  0  0  0  0  0  0  0  0
    1.8523   -0.7875   -3.0868 H   0  0  0  0  0  0  0  0  0  0  0  0
    1.6419   -2.0246   -0.9637 H   0  0  0  0  0  0  0  0  0  0  0  0
   -1.4550   -3.5623   -1.6532 H   0  0  0  0  0  0  0  0  0  0  0  0
   -2.2220   -5.8659   -1.8082 H   0  0  0  0  0  0  0  0  0  0  0  0
   -2.2185   -7.3260    0.2005 H   0  0  0  0  0  0  0  0  0  0  0  0
   -1.4319   -6.4373    2.3538 H   0  0  0  0  0  0  0  0  0  0  0  0
   -0.5279   -4.6598    3.6695 H   0  0  0  0  0  0  0  0  0  0  0  0
    0.3405   -3.0917    5.0689 H   0  0  0  0  0  0  0  0  0  0  0  0
    1.2397   -1.5799    6.6880 H   0  0  0  0  0  0  0  0  0  0  0  0
    2.0547    0.6537    7.3171 H   0  0  0  0  0  0  0  0  0  0  0  0
    2.1203    2.4641    5.6158 H   0  0  0  0  0  0  0  0  0  0  0  0
    1.3911    2.0345    3.3362 H   0  0  0  0  0  0  0  0  0  0  0  0
    4.9233   -0.7996    0.7803 H   0  0  0  0  0  0  0  0  0  0  0  0
    7.2797   -1.2405    0.1796 H   0  0  0  0  0  0  0  0  0  0  0  0
    9.6343   -1.6818   -0.4304 H   0  0  0  0  0  0  0  0  0  0  0  0
   11.6360   -1.1093   -1.7464 H   0  0  0  0  0  0  0  0  0  0  0  0
   11.5857    0.7995   -3.3300 H   0  0  0  0  0  0  0  0  0  0  0  0
    9.5327    2.1356   -3.5960 H   0  0  0  0  0  0  0  0  0  0  0  0
    7.1794    2.5800   -2.9855 H   0  0  0  0  0  0  0  0  0  0  0  0
    4.8331    3.0155   -2.3687 H   0  0  0  0  0  0  0  0  0  0  0  0
    2.4851    3.4310   -1.7082 H   0  0  0  0  0  0  0  0  0  0  0  0
    0.1495    3.8115   -1.0403 H   0  0  0  0  0  0  0  0  0  0  0  0
   -1.8136    3.1610    0.3068 H   0  0  0  0  0  0  0  0  0  0  0  0
   -1.6800    1.2136    1.8138 H   0  0  0  0  0  0  0  0  0  0  0  0
   -4.9617   -0.5579    0.7603 H   0  0  0  0  0  0  0  0  0  0  0  0
   -7.2924    0.1823    1.0876 H   0  0  0  0  0  0  0  0  0  0  0  0
   -9.6235    0.9344    1.4171 H   0  0  0  0  0  0  0  0  0  0  0  0
  -11.5688    2.2415    0.6549 H   0  0  0  0  0  0  0  0  0  0  0  0
  1  2  4  0
  2  3  4  0
  3  4  4  0
  4  5  4  0
  5  6  4  0
  6  7  4  0
  7  8  4  0
  8  9  4  0
  9 10  4  0
 10 11  4  0
 11 12  4  0
 12 13  4  0
 13 14  1  0
 14 15  4  0
 15 16  4  0
 16 17  4  0
 17 18  4  0
 18 19  4  0
 19 20  4  0
 20 21  4  0
 21 22  4  0
 22 23  4  0
 23 24  4  0
 24 25  4  0
 25 26  4  0
 26 27  4  0
 27 28  4  0
 28 29  4  0
 29 30  4  0
 30 31  1  0
 31 32  4  0
 32 33  4  0
 33 34  4  0
 34 35  4  0
 35 36  4  0
 36 37  4  0
 37 38  4  0
 38 39  4  0
 39 40  4  0
 40 41  4  0
 41 42  4  0
 42 43  4  0
 43 44  4  0
 44 45  4  0
 45 46  4  0
 46 47  4  0
 47 48  4  0
 48 49  4  0
 49 50  4  0
 50 51  4  0
 51 52  4  0
 30 53  4  0
 13 54  4  0
 54 55  4  0
 55 56  4  0
 56 57  4  0
 57 58  4  0
 58 59  4  0
 59 60  4  0
 60 61  4  0
 61 62  4  0
 62  1  4  0
 60  3  4  0
 58  5  4  0
 56  7  4  0
 54  9  4  0
 53 14  4  0
 20 15  4  0
 53 22  4  0
 29 24  4  0
 52 31  4  0
 49 32  4  0
 47 34  4  0
 45 36  4  0
 43 38  4  0
  1 63  1  0
  2 64  1  0
  4 65  1  0
  6 66  1  0
  8 67  1  0
 10 68  1  0
 11 69  1  0
 12 70  1  0
 16 71  1  0
 17 72  1  0
 18 73  1  0
 19 74  1  0
 21 75  1  0
 23 76  1  0
 25 77  1  0
 26 78  1  0
 27 79  1  0
 28 80  1  0
 35 81  1  0
 37 82  1  0
 39 83  1  0
 40 84  1  0
 41 85  1  0
 42 86  1  0
 44 87  1  0
 46 88  1  0
 48 89  1  0
 50 90  1  0
 51 91  1  0
 52 92  1  0
 57 93  1  0
 59 94  1  0
 61 95  1  0
 62 96  1  0
M  END
