
     RDKit          3D

 96109  0  0  0  0  0  0  0  0999 V2000
   11.1117    1.1544    1.2191 C   0  0  0  0  0  0  0  0  0  0  0  0
    9.9691    0.3593    1.1196 C   0  0  0  0  0  0  0  0  0  0  0  0
    8.7730    0.8818    0.6001 C   0  0  0  0  0  0  0  0  0  0  0  0
    7.6140    0.0952    0.4940 C   0  0  0  0  0  0  0  0  0  0  0  0
    6.4184    0.6212   -0.0243 C   0  0  0  0  0  0  0  0  0  0  0  0
    5.2568   -0.1571   -0.1311 C   0  0  0  0  0  0  0  0  0  0  0  0
    4.0686    0.3860   -0.6520 C   0  0  0  0  0  0  0  0  0  0  0  0
    2.8957   -0.3691   -0.7635 C   0  0  0  0  0  0  0  0  0  0  0  0
    1.7121    0.1960   -1.2796 C   0  0  0  0  0  0  0  0  0  0  0  0
    0.4773   -0.5126   -1.4010 C   0  0  0  0  0  0  0  0  0  0  0  0
    0.3470   -1.9462   -1.0279 C   0  0  0  0  0  0  0  0  0  0  0  0
    0.6600   -2.9053   -2.0672 C   0  0  0  0  0  0  0  0  0  0  0  0
    1.0554   -2.5678   -3.3918 C   0  0  0  0  0  0  0  0  0  0  0  0
    1.3506   -3.5328   -4.3592 C   0  0  0  0  0  0  0  0  0  0  0  0
    1.2627   -4.8766   -4.0374 C   0  0  0  0  0  0  0  0  0  0  0  0
    0.8808   -5.2450   -2.7509 C   0  0  0  0  0  0  0  0  0  0  0  0
    0.5827   -4.2760   -1.7734 C   0  0  0  0  0  0  0  0  0  0  0  0
    0.2106   -4.6761   -0.4928 C   0  0  0  0  0  0  0  0  0  0  0  0
   -0.0967   -3.7658    0.5267 C   0  0  0  0  0  0  0  0  0  0  0  0
   -0.4467   -4.3211    1.7640 C   0  0  0  0  0  0  0  0  0  0  0  0
   -0.7764   -3.5451    2.8719 C   0  0  0  0  0  0  0  0  0  0  0  0
   -1.1141   -4.1689    4.0880 C   0  0  0  0  0  0  0  0  0  0  0  0
   -1.4533   -3.4211    5.2115 C   0  0  0  0  0  0  0  0  0  0  0  0
   -1.4587   -2.0391    5.1295 C   0  0  0  0  0  0  0  0  0  0  0  0
   -1.1240   -1.4160    3.9241 C   0  0  0  0  0  0  0  0  0  0  0  0
   -0.7707   -2.1464    2.7551 C   0  0  0  0  0  0  0  0  0  0  0  0
   -0.4203   -1.5501    1.4827 C   0  0  0  0  0  0  0  0  0  0  0  0
   -0.4746   -0.0646    1.4239 C   0  0  0  0  0  0  0  0  0  0  0  0
   -1.6771    0.6402    1.1080 C   0  0  0  0  0  0  0  0  0  0  0  0
   -2.8932    0.0106    0.7743 C   0  0  0  0  0  0  0  0  0  0  0  0
   -4.0349    0.7593    0.4661 C   0  0  0  0  0  0  0  0  0  0  0  0
   -5.2566    0.1495    0.1277 C   0  0  0  0  0  0  0  0  0  0  0  0
   -6.3865    0.9211   -0.1797 C   0  0  0  0  0  0  0  0  0  0  0  0
   -7.6154    0.3291   -0.5182 C   0  0  0  0  0  0  0  0  0  0  0  0
   -8.7420    1.1093   -0.8271 C   0  0  0  0  0  0  0  0  0  0  0  0
   -9.9711    0.5199   -1.1666 C   0  0  0  0  0  0  0  0  0  0  0  0
  -11.0814    1.3087   -1.4718 C   0  0  0  0  0  0  0  0  0  0  0  0
  -10.9774    2.6958   -1.4418 C   0  0  0  0  0  0  0  0  0  0  0  0
   -9.7631    3.2966   -1.1062 C   0  0  0  0  0  0  0  0  0  0  0  0
   -8.6366    2.5164   -0.7962 C   0  0  0  0  0  0  0  0  0  0  0  0
   -7.4073    3.1054   -0.4557 C   0  0  0  0  0  0  0  0  0  0  0  0
   -6.2812    2.3239   -0.1465 C   0  0  0  0  0  0  0  0  0  0  0  0
   -5.0501    2.9114    0.1964 C   0  0  0  0  0  0  0  0  0  0  0  0
   -3.9265    2.1562    0.5039 C   0  0  0  0  0  0  0  0  0  0  0  0
   -2.7818    2.7797    0.8265 N   0  0  0  0  0  0  0  0  0  0  0  0
   -1.6909    2.0506    1.1229 C   0  0  0  0  0  0  0  0  0  0  0  0
   -0.5303    2.7269    1.4658 C   0  0  0  0  0  0  0  0  0  0  0  0
    0.6425    2.0554    1.8070 C   0  0  0  0  0  0  0  0  0  0  0  0
    0.6666    0.6669    1.7960 C   0  0  0  0  0  0  0  0  0  0  0  0
   -0.0552   -2.3634    0.3186 C   0  0  0  0  0  0  0  0  0  0  0  0
   -0.6278    0.1363   -1.9784 C   0  0  0  0  0  0  0  0  0  0  0  0
   -0.5375    1.4628   -2.3792 C   0  0  0  0  0  0  0  0  0  0  0  0
    0.6657    2.1488   -2.2230 C   0  0  0  0  0  0  0  0  0  0  0  0
    1.7923    1.5440   -1.6867 C   0  0  0  0  0  0  0  0  0  0  0  0
    2.9148    2.2780   -1.5840 N   0  0  0  0  0  0  0  0  0  0  0  0
    4.0263    1.7208   -1.0776 C   0  0  0  0  0  0  0  0  0  0  0  0
    5.1810    2.4835   -0.9671 C   0  0  0  0  0  0  0  0  0  0  0  0
    6.3798    1.9625   -0.4481 C   0  0  0  0  0  0  0  0  0  0  0  0
    7.5388    2.7501   -0.3435 C   0  0  0  0  0  0  0  0  0  0  0  0
    8.7346    2.2273    0.1757 C   0  0  0  0  0  0  0  0  0  0  0  0
    9.8930    3.0145    0.2821 C   0  0  0  0  0  0  0  0  0  0  0  0
   11.0737    2.4808    0.8007 C   0  0  0  0  0  0  0  0  0  0  0  0
   12.0304    0.7371    1.6233 H   0  0  0  0  0  0  0  0  0  0  0  0
   10.0185   -0.6752    1.4520 H   0  0  0  0  0  0  0  0  0  0  0  0
    7.6432   -0.9430    0.8199 H   0  0  0  0  0  0  0  0  0  0  0  0
    5.2735   -1.1961    0.1931 H   0  0  0  0  0  0  0  0  0  0  0  0
    2.9033   -1.4068   -0.4374 H   0  0  0  0  0  0  0  0  0  0  0  0
    1.1426   -1.5256   -3.6949 H   0  0  0  0  0  0  0  0  0  0  0  0
    1.6485   -3.2258   -5.3584 H   0  0  0  0  0  0  0  0  0  0  0  0
    1.4902   -5.6358   -4.7808 H   0  0  0  0  0  0  0  0  0  0  0  0
    0.8187   -6.3056   -2.5136 H   0  0  0  0  0  0  0  0  0  0  0  0
    0.1605   -5.7456   -0.2834 H   0  0  0  0  0  0  0  0  0  0  0  0
   -0.4625   -5.4062    1.8743 H   0  0  0  0  0  0  0  0  0  0  0  0
   -1.1156   -5.2543    4.1688 H   0  0  0  0  0  0  0  0  0  0  0  0
   -1.7118   -3.9169    6.1430 H   0  0  0  0  0  0  0  0  0  0  0  0
   -1.7220   -1.4382    5.9959 H   0  0  0  0  0  0  0  0  0  0  0  0
   -1.1438   -0.3275    3.9120 H   0  0  0  0  0  0  0  0  0  0  0  0
   -2.9521   -1.0753    0.7501 H   0  0  0  0  0  0  0  0  0  0  0  0
   -5.3242   -0.9366    0.1050 H   0  0  0  0  0  0  0  0  0  0  0  0
   -7.6973   -0.7562   -0.5419 H   0  0  0  0  0  0  0  0  0  0  0  0
  -10.0727   -0.5626   -1.1960 H   0  0  0  0  0  0  0  0  0  0  0  0
  -12.0260    0.8390   -1.7329 H   0  0  0  0  0  0  0  0  0  0  0  0
  -11.8407    3.3120   -1.6794 H   0  0  0  0  0  0  0  0  0  0  0  0
   -9.7023    4.3826   -1.0888 H   0  0  0  0  0  0  0  0  0  0  0  0
   -7.3249    4.1907   -0.4311 H   0  0  0  0  0  0  0  0  0  0  0  0
   -4.9563    3.9951    0.2288 H   0  0  0  0  0  0  0  0  0  0  0  0
   -0.5393    3.8147    1.4701 H   0  0  0  0  0  0  0  0  0  0  0  0
    1.5345    2.6174    2.0708 H   0  0  0  0  0  0  0  0  0  0  0  0
    1.5830    0.1490    2.0723 H   0  0  0  0  0  0  0  0  0  0  0  0
   -1.5685   -0.3953   -2.1076 H   0  0  0  0  0  0  0  0  0  0  0  0
   -1.4017    1.9682   -2.8021 H   0  0  0  0  0  0  0  0  0  0  0  0
    0.7264    3.1905   -2.5305 H   0  0  0  0  0  0  0  0  0  0  0  0
    5.1385    3.5187   -1.3001 H   0  0  0  0  0  0  0  0  0  0  0  0
    7.5080    3.7881   -0.6706 H   0  0  0  0  0  0  0  0  0  0  0  0
    9.8830    4.0535   -0.0398 H   0  0  0  0  0  0  0  0  0  0  0  0
   11.9624    3.1018    0.8773 H   0  0  0  0  0  0  0  0  0  0  0  0
  1  2  4  0
  2  3  4  0
  3  4  4  0
  4  5  4  0
  5  6  4  0
  6  7  4  0
  7  8  4  0
  8  9  4  0
  9 10  4  0
 10 11  1  0
 11 12  4  0
 12 13  4  0
 13 14  4  0
 14 15  4  0
 15 16  4  0
 16 17  4  0
 17 18  4  0
 18 19  4  0
 19 20  4  0
 20 21  4  0
 21 22  4  0
 22 23  4  0
 23 24  4  0
 24 25  4  0
 25 26  4  0
 26 27  4  0
 27 28  1  0
 28 29  4  0
 29 30  4  0
 30 31  4  0
 31 32  4  0
 32 33  4  0
 33 34  4  0
 34 35  4  0
 35 36  4  0
 36 37  4  0
 37 38  4  0
 38 39  4  0
 39 40  4  0
 40 41  4  0
 41 42  4  0
 42 43  4  0
 43 44  4  0
 44 45  4  0
 45 46  4  0
 46 47  4  0
 47 48  4  0
 48 49  4  0
 27 50  4  0
 10 51  4  0
 51 52  4  0
 52 53  4  0
 53 54  4  0
 54 55  4  0
 55 56  4  0
 56 57  4  0
 57 58  4  0
 58 59  4  0
 59 60  4  0
 60 61  4  0
 61 62  4  0
 62  1  4  0
 60  3  4  0
 58  5  4  0
 56  7  4  0
 54  9  4  0
 50 11  4  0
 17 12  4  0
 50 19  4  0
 26 21  4  0
 49 28  4  0
 46 29  4  0
 44 31  4  0
 42 33  4  0
 40 35  4  0
  1 63  1  0
  2 64  1  0
  4 65  1  0
  6 66  1  0
  8 67  1  0
 13 68  1  0
 14 69  1  0
 15 70  1  0
 16 71  1  0
 18 72  1  0
 20 73  1  0
 22 74  1  0
 23 75  1  0
 24 76  1  0
 25 77  1  0
 30 78  1  0
 32 79  1  0
 34 80  1  0
 36 81  1  0
 37 82  1  0
 38 83  1  0
 39 84  1  0
 41 85  1  0
 43 86  1  0
 47 87  1  0
 48 88  1  0
 49 89  1  0
 51 90  1  0
 52 91  1  0
 53 92  1  0
 57 93  1  0
 59 94  1  0
 61 95  1  0
 62 96  1  0
M  END
