
     RDKit          3D

 86 99  0  0  0  0  0  0  0  0999 V2000
    5.5447   -3.3652   -5.8605 C   0  0  0  0  0  0  0  0  0  0  0  0
    5.0935   -3.5538   -4.5754 C   0  0  0  0  0  0  0  0  0  0  0  0
    4.4386   -2.3947   -4.0390 C   0  0  0  0  0  0  0  0  0  0  0  0
    3.8394   -2.1781   -2.7758 C   0  0  0  0  0  0  0  0  0  0  0  0
    3.2362   -0.9475   -2.4592 C   0  0  0  0  0  0  0  0  0  0  0  0
    3.2336    0.0881   -3.4023 C   0  0  0  0  0  0  0  0  0  0  0  0
    2.6269    1.3080   -3.0684 C   0  0  0  0  0  0  0  0  0  0  0  0
    2.0108    1.5138   -1.8222 C   0  0  0  0  0  0  0  0  0  0  0  0
    1.4399    2.7581   -1.5262 C   0  0  0  0  0  0  0  0  0  0  0  0
    0.8643    2.9828   -0.2637 C   0  0  0  0  0  0  0  0  0  0  0  0
    0.1732    4.4608    0.2939 S   0  0  0  0  0  0  0  0  0  0  0  0
   -0.1747    3.8073    1.8255 C   0  0  0  0  0  0  0  0  0  0  0  0
    0.2077    2.4905    1.9172 C   0  0  0  0  0  0  0  0  0  0  0  0
    0.7979    1.9795    0.7027 C   0  0  0  0  0  0  0  0  0  0  0  0
    1.3129    0.6855    0.3742 C   0  0  0  0  0  0  0  0  0  0  0  0
    1.2590   -0.3626    1.4285 C   0  0  0  0  0  0  0  0  0  0  0  0
    2.3695   -0.3789    2.3603 C   0  0  0  0  0  0  0  0  0  0  0  0
    3.4731    0.5195    2.3269 C   0  0  0  0  0  0  0  0  0  0  0  0
    4.5201    0.4634    3.2510 C   0  0  0  0  0  0  0  0  0  0  0  0
    4.5042   -0.4981    4.2468 C   0  0  0  0  0  0  0  0  0  0  0  0
    3.4429   -1.3962    4.3090 C   0  0  0  0  0  0  0  0  0  0  0  0
    2.3869   -1.3429    3.3791 C   0  0  0  0  0  0  0  0  0  0  0  0
    1.3427   -2.2592    3.4644 C   0  0  0  0  0  0  0  0  0  0  0  0
    0.2629   -2.2664    2.5721 C   0  0  0  0  0  0  0  0  0  0  0  0
   -0.7041   -3.2559    2.7906 C   0  0  0  0  0  0  0  0  0  0  0  0
   -1.8368   -3.3938    1.9936 C   0  0  0  0  0  0  0  0  0  0  0  0
   -2.7693   -4.4111    2.2727 C   0  0  0  0  0  0  0  0  0  0  0  0
   -3.9141   -4.5719    1.4979 C   0  0  0  0  0  0  0  0  0  0  0  0
   -4.1382   -3.7145    0.4346 C   0  0  0  0  0  0  0  0  0  0  0  0
   -3.2140   -2.7043    0.1541 C   0  0  0  0  0  0  0  0  0  0  0  0
   -2.0310   -2.5102    0.9215 C   0  0  0  0  0  0  0  0  0  0  0  0
   -1.0411   -1.4809    0.6720 C   0  0  0  0  0  0  0  0  0  0  0  0
   -1.3180   -0.5820   -0.4810 C   0  0  0  0  0  0  0  0  0  0  0  0
   -0.9015   -1.0241   -1.7770 C   0  0  0  0  0  0  0  0  0  0  0  0
   -0.2299   -2.2291   -2.2030 C   0  0  0  0  0  0  0  0  0  0  0  0
    0.0031   -2.2740   -3.5567 C   0  0  0  0  0  0  0  0  0  0  0  0
   -0.5835   -0.8856   -4.3450 S   0  0  0  0  0  0  0  0  0  0  0  0
   -1.1805   -0.2108   -2.8750 C   0  0  0  0  0  0  0  0  0  0  0  0
   -1.8727    1.0047   -2.7396 C   0  0  0  0  0  0  0  0  0  0  0  0
   -2.3459    1.4026   -1.4832 C   0  0  0  0  0  0  0  0  0  0  0  0
   -3.0805    2.5944   -1.3618 C   0  0  0  0  0  0  0  0  0  0  0  0
   -3.5978    3.0231   -0.1307 C   0  0  0  0  0  0  0  0  0  0  0  0
   -3.3851    2.2321    1.0056 C   0  0  0  0  0  0  0  0  0  0  0  0
   -3.8954    2.6465    2.2489 C   0  0  0  0  0  0  0  0  0  0  0  0
   -4.6155    3.8577    2.3764 C   0  0  0  0  0  0  0  0  0  0  0  0
   -5.2090    4.4740    3.5285 C   0  0  0  0  0  0  0  0  0  0  0  0
   -5.8255    5.6680    3.2373 C   0  0  0  0  0  0  0  0  0  0  0  0
   -5.7057    6.0608    1.5827 S   0  0  0  0  0  0  0  0  0  0  0  0
   -4.8133    4.6287    1.2308 C   0  0  0  0  0  0  0  0  0  0  0  0
   -4.3165    4.2254   -0.0238 C   0  0  0  0  0  0  0  0  0  0  0  0
   -2.6480    1.0428    0.8822 C   0  0  0  0  0  0  0  0  0  0  0  0
   -2.0961    0.6114   -0.3474 C   0  0  0  0  0  0  0  0  0  0  0  0
    0.1555   -1.3297    1.5122 C   0  0  0  0  0  0  0  0  0  0  0  0
    1.9755    0.4741   -0.8758 C   0  0  0  0  0  0  0  0  0  0  0  0
    2.6172   -0.7404   -1.2158 C   0  0  0  0  0  0  0  0  0  0  0  0
    3.8294   -0.1077   -4.6593 C   0  0  0  0  0  0  0  0  0  0  0  0
    4.4212   -1.3494   -4.9625 C   0  0  0  0  0  0  0  0  0  0  0  0
    5.1916   -1.8002   -6.4371 S   0  0  0  0  0  0  0  0  0  0  0  0
    6.0664   -4.0732   -6.4895 H   0  0  0  0  0  0  0  0  0  0  0  0
    5.2235   -4.4829   -4.0344 H   0  0  0  0  0  0  0  0  0  0  0  0
    3.8412   -2.9857   -2.0472 H   0  0  0  0  0  0  0  0  0  0  0  0
    2.6314    2.1163   -3.7982 H   0  0  0  0  0  0  0  0  0  0  0  0
    1.4623    3.5657   -2.2536 H   0  0  0  0  0  0  0  0  0  0  0  0
   -0.6528    4.4121    2.5836 H   0  0  0  0  0  0  0  0  0  0  0  0
    0.0617    1.9010    2.8141 H   0  0  0  0  0  0  0  0  0  0  0  0
    3.5344    1.2923    1.5625 H   0  0  0  0  0  0  0  0  0  0  0  0
    5.3408    1.1726    3.1841 H   0  0  0  0  0  0  0  0  0  0  0  0
    5.3121   -0.5522    4.9710 H   0  0  0  0  0  0  0  0  0  0  0  0
    3.4464   -2.1479    5.0960 H   0  0  0  0  0  0  0  0  0  0  0  0
    1.3766   -3.0013    4.2632 H   0  0  0  0  0  0  0  0  0  0  0  0
   -0.5733   -3.9527    3.6196 H   0  0  0  0  0  0  0  0  0  0  0  0
   -2.6086   -5.0923    3.1062 H   0  0  0  0  0  0  0  0  0  0  0  0
   -4.6248   -5.3612    1.7262 H   0  0  0  0  0  0  0  0  0  0  0  0
   -5.0272   -3.8226   -0.1812 H   0  0  0  0  0  0  0  0  0  0  0  0
   -3.4374   -2.0560   -0.6916 H   0  0  0  0  0  0  0  0  0  0  0  0
    0.0784   -3.0204   -1.5309 H   0  0  0  0  0  0  0  0  0  0  0  0
    0.5015   -3.0527   -4.1171 H   0  0  0  0  0  0  0  0  0  0  0  0
   -2.0611    1.6123   -3.6213 H   0  0  0  0  0  0  0  0  0  0  0  0
   -3.2521    3.2050   -2.2472 H   0  0  0  0  0  0  0  0  0  0  0  0
   -3.7300    2.0369    3.1345 H   0  0  0  0  0  0  0  0  0  0  0  0
   -5.1788    4.0525    4.5257 H   0  0  0  0  0  0  0  0  0  0  0  0
   -6.3425    6.3295    3.9186 H   0  0  0  0  0  0  0  0  0  0  0  0
   -4.4873    4.8502   -0.8964 H   0  0  0  0  0  0  0  0  0  0  0  0
   -2.4849    0.4443    1.7772 H   0  0  0  0  0  0  0  0  0  0  0  0
    2.6204   -1.5593   -0.4979 H   0  0  0  0  0  0  0  0  0  0  0  0
    3.8323    0.6855   -5.4021 H   0  0  0  0  0  0  0  0  0  0  0  0
  1  2  4  0
  2  3  4  0
  3  4  4  0
  4  5  4  0
  5  6  4  0
  6  7  4  0
  7  8  4  0
  8  9  4  0
  9 10  4  0
 10 11  4  0
 11 12  4  0
 12 13  4  0
 13 14  4  0
 14 15  4  0
 15 16  1  0
 16 17  4  0
 17 18  4  0
 18 19  4  0
 19 20  4  0
 20 21  4  0
 21 22  4  0
 22 23  4  0
 23 24  4  0
 24 25  4  0
 25 26  4  0
 26 27  4  0
 27 28  4  0
 28 29  4  0
 29 30  4  0
 30 31  4  0
 31 32  4  0
 32 33  1  0
 33 34  4  0
 34 35  4  0
 35 36  4  0
 36 37  4  0
 37 38  4  0
 38 39  4  0
 39 40  4  0
 40 41  4  0
 41 42  4  0
 42 43  4  0
 43 44  4  0
 44 45  4  0
 45 46  4  0
 46 47  4  0
 47 48  4  0
 48 49  4  0
 49 50  4  0
 43 51  4  0
 51 52  4  0
 32 53  4  0
 15 54  4  0
 54 55  4  0
  6 56  4  0
 56 57  4  0
 57 58  4  0
 58  1  4  0
 57  3  4  0
 55  5  4  0
 54  8  4  0
 14 10  4  0
 53 16  4  0
 22 17  4  0
 53 24  4  0
 31 26  4  0
 52 33  4  0
 38 34  4  0
 52 40  4  0
 50 42  4  0
 49 45  4  0
  1 59  1  0
  2 60  1  0
  4 61  1  0
  7 62  1  0
  9 63  1  0
 12 64  1  0
 13 65  1  0
 18 66  1  0
 19 67  1  0
 20 68  1  0
 21 69  1  0
 23 70  1  0
 25 71  1  0
 27 72  1  0
 28 73  1  0
 29 74  1  0
 30 75  1  0
 35 76  1  0
 36 77  1  0
 39 78  1  0
 41 79  1  0
 44 80  1  0
 46 81  1  0
 47 82  1  0
 50 83  1  0
 51 84  1  0
 55 85  1  0
 56 86  1  0
M  END
