
     RDKit          3D

 86 99  0  0  0  0  0  0  0  0999 V2000
    5.3572    3.6530    5.5170 C   0  0  0  0  0  0  0  0  0  0  0  0
    4.6560    4.3757    4.5804 C   0  0  0  0  0  0  0  0  0  0  0  0
    4.0710    3.5500    3.5623 C   0  0  0  0  0  0  0  0  0  0  0  0
    3.2818    3.8932    2.4385 C   0  0  0  0  0  0  0  0  0  0  0  0
    2.7951    2.9054    1.5628 C   0  0  0  0  0  0  0  0  0  0  0  0
    3.1025    1.5594    1.7969 C   0  0  0  0  0  0  0  0  0  0  0  0
    3.8961    1.2023    2.8996 C   0  0  0  0  0  0  0  0  0  0  0  0
    4.3645    2.2026    3.7726 C   0  0  0  0  0  0  0  0  0  0  0  0
    5.3264    1.9810    5.1855 S   0  0  0  0  0  0  0  0  0  0  0  0
    2.5913    0.5820    0.9265 C   0  0  0  0  0  0  0  0  0  0  0  0
    1.7620    0.8959   -0.1755 C   0  0  0  0  0  0  0  0  0  0  0  0
    1.4972    2.2567   -0.4152 C   0  0  0  0  0  0  0  0  0  0  0  0
    2.0033    3.2381    0.4542 C   0  0  0  0  0  0  0  0  0  0  0  0
    0.7345    2.6379   -1.5279 C   0  0  0  0  0  0  0  0  0  0  0  0
    0.2524    1.6869   -2.4536 C   0  0  0  0  0  0  0  0  0  0  0  0
   -0.4960    1.8815   -3.6637 C   0  0  0  0  0  0  0  0  0  0  0  0
   -0.7614    0.7075   -4.3233 C   0  0  0  0  0  0  0  0  0  0  0  0
   -0.1200   -0.6380   -3.5050 S   0  0  0  0  0  0  0  0  0  0  0  0
    0.5053    0.3360   -2.2061 C   0  0  0  0  0  0  0  0  0  0  0  0
    1.2071   -0.0982   -1.0404 C   0  0  0  0  0  0  0  0  0  0  0  0
    1.4496   -1.5559   -0.8586 C   0  0  0  0  0  0  0  0  0  0  0  0
    2.6408   -2.0837   -1.4931 C   0  0  0  0  0  0  0  0  0  0  0  0
    3.6214   -1.2996   -2.1634 C   0  0  0  0  0  0  0  0  0  0  0  0
    4.7541   -1.8586   -2.7616 C   0  0  0  0  0  0  0  0  0  0  0  0
    4.9476   -3.2285   -2.7156 C   0  0  0  0  0  0  0  0  0  0  0  0
    4.0059   -4.0282   -2.0753 C   0  0  0  0  0  0  0  0  0  0  0  0
    2.8641   -3.4684   -1.4709 C   0  0  0  0  0  0  0  0  0  0  0  0
    1.9296   -4.2971   -0.8564 C   0  0  0  0  0  0  0  0  0  0  0  0
    0.7791   -3.8078   -0.2248 C   0  0  0  0  0  0  0  0  0  0  0  0
   -0.0716   -4.7711    0.3324 C   0  0  0  0  0  0  0  0  0  0  0  0
   -1.2435   -4.4435    1.0084 C   0  0  0  0  0  0  0  0  0  0  0  0
   -2.0574   -5.4651    1.5346 C   0  0  0  0  0  0  0  0  0  0  0  0
   -3.2231   -5.1690    2.2343 C   0  0  0  0  0  0  0  0  0  0  0  0
   -3.5856   -3.8454    2.4172 C   0  0  0  0  0  0  0  0  0  0  0  0
   -2.7800   -2.8289    1.8965 C   0  0  0  0  0  0  0  0  0  0  0  0
   -1.5844   -3.0924    1.1710 C   0  0  0  0  0  0  0  0  0  0  0  0
   -0.7116   -2.0778    0.6150 C   0  0  0  0  0  0  0  0  0  0  0  0
   -1.0582   -0.6682    0.9458 C   0  0  0  0  0  0  0  0  0  0  0  0
   -0.5578   -0.1109    2.1619 C   0  0  0  0  0  0  0  0  0  0  0  0
    0.4262   -0.8850    3.3701 S   0  0  0  0  0  0  0  0  0  0  0  0
    0.5128    0.5188    4.3256 C   0  0  0  0  0  0  0  0  0  0  0  0
   -0.2067    1.5532    3.7811 C   0  0  0  0  0  0  0  0  0  0  0  0
   -0.8478    1.2002    2.5458 C   0  0  0  0  0  0  0  0  0  0  0  0
   -1.6833    1.9722    1.7094 C   0  0  0  0  0  0  0  0  0  0  0  0
   -2.2583    1.4345    0.5495 C   0  0  0  0  0  0  0  0  0  0  0  0
   -3.1239    2.2207   -0.2300 C   0  0  0  0  0  0  0  0  0  0  0  0
   -3.7424    1.7172   -1.3834 C   0  0  0  0  0  0  0  0  0  0  0  0
   -3.5038    0.3880   -1.7545 C   0  0  0  0  0  0  0  0  0  0  0  0
   -4.1142   -0.1399   -2.9040 C   0  0  0  0  0  0  0  0  0  0  0  0
   -4.9522    0.6785   -3.6847 C   0  0  0  0  0  0  0  0  0  0  0  0
   -5.7768    0.2382   -5.1324 S   0  0  0  0  0  0  0  0  0  0  0  0
   -6.4664    1.7883   -5.2986 C   0  0  0  0  0  0  0  0  0  0  0  0
   -6.0853    2.6324   -4.2822 C   0  0  0  0  0  0  0  0  0  0  0  0
   -5.2047    2.0058   -3.3377 C   0  0  0  0  0  0  0  0  0  0  0  0
   -4.5914    2.5181   -2.1693 C   0  0  0  0  0  0  0  0  0  0  0  0
   -2.6361   -0.3934   -0.9729 C   0  0  0  0  0  0  0  0  0  0  0  0
   -1.9748    0.1093    0.1718 C   0  0  0  0  0  0  0  0  0  0  0  0
    0.4933   -2.4211   -0.1533 C   0  0  0  0  0  0  0  0  0  0  0  0
    5.8877    4.0278    6.3816 H   0  0  0  0  0  0  0  0  0  0  0  0
    4.5603    5.4537    4.6181 H   0  0  0  0  0  0  0  0  0  0  0  0
    3.0486    4.9403    2.2620 H   0  0  0  0  0  0  0  0  0  0  0  0
    4.1374    0.1601    3.0937 H   0  0  0  0  0  0  0  0  0  0  0  0
    2.8315   -0.4616    1.1285 H   0  0  0  0  0  0  0  0  0  0  0  0
    1.7771    4.2858    0.2628 H   0  0  0  0  0  0  0  0  0  0  0  0
    0.5259    3.6892   -1.7126 H   0  0  0  0  0  0  0  0  0  0  0  0
   -0.8189    2.8477   -4.0300 H   0  0  0  0  0  0  0  0  0  0  0  0
   -1.3043    0.5764   -5.2489 H   0  0  0  0  0  0  0  0  0  0  0  0
    3.5143   -0.2184   -2.2278 H   0  0  0  0  0  0  0  0  0  0  0  0
    5.4763   -1.2177   -3.2601 H   0  0  0  0  0  0  0  0  0  0  0  0
    5.8229   -3.6752   -3.1782 H   0  0  0  0  0  0  0  0  0  0  0  0
    4.1682   -5.1039   -2.0532 H   0  0  0  0  0  0  0  0  0  0  0  0
    2.1105   -5.3723   -0.8695 H   0  0  0  0  0  0  0  0  0  0  0  0
    0.1866   -5.8259    0.2356 H   0  0  0  0  0  0  0  0  0  0  0  0
   -1.7822   -6.5098    1.4042 H   0  0  0  0  0  0  0  0  0  0  0  0
   -3.8395   -5.9680    2.6361 H   0  0  0  0  0  0  0  0  0  0  0  0
   -4.4904   -3.5937    2.9636 H   0  0  0  0  0  0  0  0  0  0  0  0
   -3.1071   -1.8053    2.0691 H   0  0  0  0  0  0  0  0  0  0  0  0
    1.0882    0.5230    5.2410 H   0  0  0  0  0  0  0  0  0  0  0  0
   -0.2757    2.5288    4.2456 H   0  0  0  0  0  0  0  0  0  0  0  0
   -1.8987    2.9979    1.9997 H   0  0  0  0  0  0  0  0  0  0  0  0
   -3.3216    3.2488    0.0686 H   0  0  0  0  0  0  0  0  0  0  0  0
   -3.9325   -1.1689   -3.2043 H   0  0  0  0  0  0  0  0  0  0  0  0
   -7.1184    2.0078   -6.1327 H   0  0  0  0  0  0  0  0  0  0  0  0
   -6.4196    3.6601   -4.2123 H   0  0  0  0  0  0  0  0  0  0  0  0
   -4.7822    3.5506   -1.8869 H   0  0  0  0  0  0  0  0  0  0  0  0
   -2.4539   -1.4225   -1.2814 H   0  0  0  0  0  0  0  0  0  0  0  0
  1  2  4  0
  2  3  4  0
  3  4  4  0
  4  5  4  0
  5  6  4  0
  6  7  4  0
  7  8  4  0
  8  9  4  0
  6 10  4  0
 10 11  4  0
 11 12  4  0
 12 13  4  0
 12 14  4  0
 14 15  4  0
 15 16  4  0
 16 17  4  0
 17 18  4  0
 18 19  4  0
 19 20  4  0
 20 21  1  0
 21 22  4  0
 22 23  4  0
 23 24  4  0
 24 25  4  0
 25 26  4  0
 26 27  4  0
 27 28  4  0
 28 29  4  0
 29 30  4  0
 30 31  4  0
 31 32  4  0
 32 33  4  0
 33 34  4  0
 34 35  4  0
 35 36  4  0
 36 37  4  0
 37 38  1  0
 38 39  4  0
 39 40  4  0
 40 41  4  0
 41 42  4  0
 42 43  4  0
 43 44  4  0
 44 45  4  0
 45 46  4  0
 46 47  4  0
 47 48  4  0
 48 49  4  0
 49 50  4  0
 50 51  4  0
 51 52  4  0
 52 53  4  0
 53 54  4  0
 54 55  4  0
 48 56  4  0
 56 57  4  0
 37 58  4  0
  9  1  4  0
 20 11  4  0
 58 21  4  0
  8  3  4  0
 19 15  4  0
 27 22  4  0
 58 29  4  0
 13  5  4  0
 36 31  4  0
 57 38  4  0
 43 39  4  0
 57 45  4  0
 55 47  4  0
 54 50  4  0
  1 59  1  0
  2 60  1  0
  4 61  1  0
  7 62  1  0
 10 63  1  0
 13 64  1  0
 14 65  1  0
 16 66  1  0
 17 67  1  0
 23 68  1  0
 24 69  1  0
 25 70  1  0
 26 71  1  0
 28 72  1  0
 30 73  1  0
 32 74  1  0
 33 75  1  0
 34 76  1  0
 35 77  1  0
 41 78  1  0
 42 79  1  0
 44 80  1  0
 46 81  1  0
 49 82  1  0
 52 83  1  0
 53 84  1  0
 55 85  1  0
 56 86  1  0
M  END
