
     RDKit          3D

 86 99  0  0  0  0  0  0  0  0999 V2000
   -3.9379    6.1651   -0.2771 C   0  0  0  0  0  0  0  0  0  0  0  0
   -3.9873    4.8372   -0.6311 C   0  0  0  0  0  0  0  0  0  0  0  0
   -3.0826    4.0229    0.1301 C   0  0  0  0  0  0  0  0  0  0  0  0
   -2.8260    2.6321    0.0749 C   0  0  0  0  0  0  0  0  0  0  0  0
   -1.8765    2.0330    0.9230 C   0  0  0  0  0  0  0  0  0  0  0  0
   -1.6010    0.6567    0.8531 C   0  0  0  0  0  0  0  0  0  0  0  0
   -0.6463    0.0233    1.6864 C   0  0  0  0  0  0  0  0  0  0  0  0
    0.0160    0.8235    2.6343 C   0  0  0  0  0  0  0  0  0  0  0  0
   -0.2442    2.2038    2.6937 C   0  0  0  0  0  0  0  0  0  0  0  0
   -1.1786    2.8200    1.8478 C   0  0  0  0  0  0  0  0  0  0  0  0
   -1.4196    4.2027    1.9151 C   0  0  0  0  0  0  0  0  0  0  0  0
   -2.3685    4.7865    1.0537 C   0  0  0  0  0  0  0  0  0  0  0  0
   -2.8113    6.4502    0.9705 S   0  0  0  0  0  0  0  0  0  0  0  0
    0.9306    0.2495    3.5264 C   0  0  0  0  0  0  0  0  0  0  0  0
    1.1563   -1.1379    3.5040 C   0  0  0  0  0  0  0  0  0  0  0  0
    2.1894   -2.0203    4.5654 S   0  0  0  0  0  0  0  0  0  0  0  0
    1.7833   -3.5072    3.8452 C   0  0  0  0  0  0  0  0  0  0  0  0
    0.8975   -3.3464    2.8072 C   0  0  0  0  0  0  0  0  0  0  0  0
    0.5315   -1.9701    2.5755 C   0  0  0  0  0  0  0  0  0  0  0  0
   -0.3415   -1.3749    1.6126 C   0  0  0  0  0  0  0  0  0  0  0  0
   -1.0186   -2.2701    0.6360 C   0  0  0  0  0  0  0  0  0  0  0  0
   -2.2651   -2.8632    1.0751 C   0  0  0  0  0  0  0  0  0  0  0  0
   -2.8161   -2.7243    2.3797 C   0  0  0  0  0  0  0  0  0  0  0  0
   -4.0237   -3.3191    2.7551 C   0  0  0  0  0  0  0  0  0  0  0  0
   -4.7310   -4.0739    1.8349 C   0  0  0  0  0  0  0  0  0  0  0  0
   -4.2286   -4.2230    0.5457 C   0  0  0  0  0  0  0  0  0  0  0  0
   -3.0128   -3.6243    0.1635 C   0  0  0  0  0  0  0  0  0  0  0  0
   -2.5495   -3.7686   -1.1416 C   0  0  0  0  0  0  0  0  0  0  0  0
   -1.3459   -3.2063   -1.5865 C   0  0  0  0  0  0  0  0  0  0  0  0
   -1.0271   -3.4199   -2.9337 C   0  0  0  0  0  0  0  0  0  0  0  0
    0.1408   -2.9375   -3.5185 C   0  0  0  0  0  0  0  0  0  0  0  0
    0.3933   -3.1798   -4.8825 C   0  0  0  0  0  0  0  0  0  0  0  0
    1.5614   -2.7297   -5.4907 C   0  0  0  0  0  0  0  0  0  0  0  0
    2.4914   -2.0328   -4.7382 C   0  0  0  0  0  0  0  0  0  0  0  0
    2.2448   -1.7914   -3.3839 C   0  0  0  0  0  0  0  0  0  0  0  0
    1.0602   -2.2303   -2.7290 C   0  0  0  0  0  0  0  0  0  0  0  0
    0.7579   -2.0090   -1.3294 C   0  0  0  0  0  0  0  0  0  0  0  0
    1.8394   -1.3815   -0.5218 C   0  0  0  0  0  0  0  0  0  0  0  0
    2.7992   -2.2704    0.0614 C   0  0  0  0  0  0  0  0  0  0  0  0
    2.9094   -3.7104    0.0228 C   0  0  0  0  0  0  0  0  0  0  0  0
    3.9934   -4.1933    0.7155 C   0  0  0  0  0  0  0  0  0  0  0  0
    4.8992   -2.9394    1.4238 S   0  0  0  0  0  0  0  0  0  0  0  0
    3.8532   -1.7231    0.7915 C   0  0  0  0  0  0  0  0  0  0  0  0
    3.9965   -0.3354    0.9563 C   0  0  0  0  0  0  0  0  0  0  0  0
    3.0956    0.5379    0.3343 C   0  0  0  0  0  0  0  0  0  0  0  0
    2.0264    0.0333   -0.4292 C   0  0  0  0  0  0  0  0  0  0  0  0
    1.1923    0.9713   -1.0813 C   0  0  0  0  0  0  0  0  0  0  0  0
    1.3692    2.3596   -0.9530 C   0  0  0  0  0  0  0  0  0  0  0  0
    0.5056    3.2676   -1.5913 C   0  0  0  0  0  0  0  0  0  0  0  0
    0.6594    4.6644   -1.4271 C   0  0  0  0  0  0  0  0  0  0  0  0
   -0.1113    5.7565   -1.9492 C   0  0  0  0  0  0  0  0  0  0  0  0
    0.3624    6.9837   -1.5496 C   0  0  0  0  0  0  0  0  0  0  0  0
    1.7315    6.8413   -0.5437 S   0  0  0  0  0  0  0  0  0  0  0  0
    1.7068    5.1201   -0.6271 C   0  0  0  0  0  0  0  0  0  0  0  0
    2.5932    4.2271    0.0051 C   0  0  0  0  0  0  0  0  0  0  0  0
    2.4156    2.8431   -0.1573 C   0  0  0  0  0  0  0  0  0  0  0  0
    3.2707    1.9253    0.4689 C   0  0  0  0  0  0  0  0  0  0  0  0
   -0.4998   -2.4645   -0.7238 C   0  0  0  0  0  0  0  0  0  0  0  0
   -4.5131    6.9831   -0.6893 H   0  0  0  0  0  0  0  0  0  0  0  0
   -4.6440    4.4566   -1.4035 H   0  0  0  0  0  0  0  0  0  0  0  0
   -3.3730    2.0254   -0.6430 H   0  0  0  0  0  0  0  0  0  0  0  0
   -2.1441    0.0628    0.1195 H   0  0  0  0  0  0  0  0  0  0  0  0
    0.2932    2.8150    3.4173 H   0  0  0  0  0  0  0  0  0  0  0  0
   -0.8745    4.8269    2.6180 H   0  0  0  0  0  0  0  0  0  0  0  0
    1.4472    0.8627    4.2605 H   0  0  0  0  0  0  0  0  0  0  0  0
    2.2170   -4.4288    4.2072 H   0  0  0  0  0  0  0  0  0  0  0  0
    0.5256   -4.1780    2.2212 H   0  0  0  0  0  0  0  0  0  0  0  0
   -2.3000   -2.1389    3.1387 H   0  0  0  0  0  0  0  0  0  0  0  0
   -4.4024   -3.1866    3.7651 H   0  0  0  0  0  0  0  0  0  0  0  0
   -5.6710   -4.5409    2.1148 H   0  0  0  0  0  0  0  0  0  0  0  0
   -4.8008   -4.8131   -0.1678 H   0  0  0  0  0  0  0  0  0  0  0  0
   -3.1566   -4.3453   -1.8406 H   0  0  0  0  0  0  0  0  0  0  0  0
   -1.7185   -3.9850   -3.5601 H   0  0  0  0  0  0  0  0  0  0  0  0
   -0.3261   -3.7297   -5.4860 H   0  0  0  0  0  0  0  0  0  0  0  0
    1.7424   -2.9253   -6.5439 H   0  0  0  0  0  0  0  0  0  0  0  0
    3.4100   -1.6732   -5.1941 H   0  0  0  0  0  0  0  0  0  0  0  0
    3.0068   -1.2388   -2.8368 H   0  0  0  0  0  0  0  0  0  0  0  0
    2.2118   -4.3567   -0.4961 H   0  0  0  0  0  0  0  0  0  0  0  0
    4.2932   -5.2245    0.8397 H   0  0  0  0  0  0  0  0  0  0  0  0
    4.8255    0.0490    1.5453 H   0  0  0  0  0  0  0  0  0  0  0  0
    0.3649    0.6125   -1.6917 H   0  0  0  0  0  0  0  0  0  0  0  0
   -0.3145    2.8995   -2.2031 H   0  0  0  0  0  0  0  0  0  0  0  0
   -0.9820    5.6357   -2.5817 H   0  0  0  0  0  0  0  0  0  0  0  0
   -0.0327    7.9590   -1.7984 H   0  0  0  0  0  0  0  0  0  0  0  0
    3.4000    4.6154    0.6205 H   0  0  0  0  0  0  0  0  0  0  0  0
    4.0930    2.3008    1.0764 H   0  0  0  0  0  0  0  0  0  0  0  0
  1  2  4  0
  2  3  4  0
  3  4  4  0
  4  5  4  0
  5  6  4  0
  6  7  4  0
  7  8  4  0
  8  9  4  0
  9 10  4  0
 10 11  4  0
 11 12  4  0
 12 13  4  0
  8 14  4  0
 14 15  4  0
 15 16  4  0
 16 17  4  0
 17 18  4  0
 18 19  4  0
 19 20  4  0
 20 21  1  0
 21 22  4  0
 22 23  4  0
 23 24  4  0
 24 25  4  0
 25 26  4  0
 26 27  4  0
 27 28  4  0
 28 29  4  0
 29 30  4  0
 30 31  4  0
 31 32  4  0
 32 33  4  0
 33 34  4  0
 34 35  4  0
 35 36  4  0
 36 37  4  0
 37 38  1  0
 38 39  4  0
 39 40  4  0
 40 41  4  0
 41 42  4  0
 42 43  4  0
 43 44  4  0
 44 45  4  0
 45 46  4  0
 46 47  4  0
 47 48  4  0
 48 49  4  0
 49 50  4  0
 50 51  4  0
 51 52  4  0
 52 53  4  0
 53 54  4  0
 54 55  4  0
 55 56  4  0
 56 57  4  0
 37 58  4  0
 13  1  4  0
 19 15  4  0
 58 21  4  0
 12  3  4  0
 27 22  4  0
 58 29  4  0
 10  5  4  0
 36 31  4  0
 46 38  4  0
 56 48  4  0
 20  7  4  0
 43 39  4  0
 57 45  4  0
 54 50  4  0
  1 59  1  0
  2 60  1  0
  4 61  1  0
  6 62  1  0
  9 63  1  0
 11 64  1  0
 14 65  1  0
 17 66  1  0
 18 67  1  0
 23 68  1  0
 24 69  1  0
 25 70  1  0
 26 71  1  0
 28 72  1  0
 30 73  1  0
 32 74  1  0
 33 75  1  0
 34 76  1  0
 35 77  1  0
 40 78  1  0
 41 79  1  0
 44 80  1  0
 47 81  1  0
 49 82  1  0
 51 83  1  0
 52 84  1  0
 55 85  1  0
 57 86  1  0
M  END
