
     RDKit          3D

 80 91  0  0  0  0  0  0  0  0999 V2000
   -1.5496    3.9953    4.1059 C   0  0  0  0  0  0  0  0  0  0  0  0
   -1.3522    4.2732    2.7521 C   0  0  0  0  0  0  0  0  0  0  0  0
   -1.3790    3.2458    1.7934 C   0  0  0  0  0  0  0  0  0  0  0  0
   -1.1936    3.5103    0.4274 C   0  0  0  0  0  0  0  0  0  0  0  0
   -1.2276    2.4972   -0.5417 C   0  0  0  0  0  0  0  0  0  0  0  0
   -1.0742    2.8856   -1.8932 C   0  0  0  0  0  0  0  0  0  0  0  0
   -1.1814    1.8230   -2.7856 C   0  0  0  0  0  0  0  0  0  0  0  0
   -1.1245    2.0012   -4.1455 C   0  0  0  0  0  0  0  0  0  0  0  0
   -1.3526    0.5154   -4.9755 S   0  0  0  0  0  0  0  0  0  0  0  0
   -1.4987   -0.3637   -3.5046 C   0  0  0  0  0  0  0  0  0  0  0  0
   -1.3732    0.4543   -2.4044 C   0  0  0  0  0  0  0  0  0  0  0  0
   -1.4586    0.0230   -1.0649 C   0  0  0  0  0  0  0  0  0  0  0  0
   -1.6953   -1.3867   -0.6849 C   0  0  0  0  0  0  0  0  0  0  0  0
   -3.0771   -1.8142   -0.6351 C   0  0  0  0  0  0  0  0  0  0  0  0
   -4.1865   -1.0251   -1.0478 C   0  0  0  0  0  0  0  0  0  0  0  0
   -5.5041   -1.4864   -0.9826 C   0  0  0  0  0  0  0  0  0  0  0  0
   -5.7632   -2.7556   -0.4937 C   0  0  0  0  0  0  0  0  0  0  0  0
   -4.7040   -3.5505   -0.0663 C   0  0  0  0  0  0  0  0  0  0  0  0
   -3.3754   -3.0894   -0.1294 C   0  0  0  0  0  0  0  0  0  0  0  0
   -2.3403   -3.8942    0.3396 C   0  0  0  0  0  0  0  0  0  0  0  0
   -0.9968   -3.5007    0.2973 C   0  0  0  0  0  0  0  0  0  0  0  0
   -0.0692   -4.4016    0.8351 C   0  0  0  0  0  0  0  0  0  0  0  0
    1.3011   -4.1543    0.8447 C   0  0  0  0  0  0  0  0  0  0  0  0
    2.1781   -5.0957    1.4157 C   0  0  0  0  0  0  0  0  0  0  0  0
    3.5546   -4.8914    1.4137 C   0  0  0  0  0  0  0  0  0  0  0  0
    4.0692   -3.7439    0.8346 C   0  0  0  0  0  0  0  0  0  0  0  0
    3.2021   -2.8075    0.2657 C   0  0  0  0  0  0  0  0  0  0  0  0
    1.7896   -2.9760    0.2585 C   0  0  0  0  0  0  0  0  0  0  0  0
    0.8495   -2.0397   -0.3192 C   0  0  0  0  0  0  0  0  0  0  0  0
    1.4353   -0.9192   -1.0888 C   0  0  0  0  0  0  0  0  0  0  0  0
    1.9133    0.3291   -0.5499 C   0  0  0  0  0  0  0  0  0  0  0  0
    1.8138    0.6036    0.8298 C   0  0  0  0  0  0  0  0  0  0  0  0
    2.2475    1.8130    1.4004 C   0  0  0  0  0  0  0  0  0  0  0  0
    2.1163    2.0621    2.7765 C   0  0  0  0  0  0  0  0  0  0  0  0
    2.5373    3.2723    3.3287 C   0  0  0  0  0  0  0  0  0  0  0  0
    3.0975    4.2489    2.5128 C   0  0  0  0  0  0  0  0  0  0  0  0
    3.2371    4.0145    1.1446 C   0  0  0  0  0  0  0  0  0  0  0  0
    2.8152    2.8009    0.5759 C   0  0  0  0  0  0  0  0  0  0  0  0
    2.9498    2.5531   -0.7976 C   0  0  0  0  0  0  0  0  0  0  0  0
    2.5290    1.3513   -1.3818 C   0  0  0  0  0  0  0  0  0  0  0  0
    2.7490    1.2000   -2.7707 C   0  0  0  0  0  0  0  0  0  0  0  0
    2.3431   -0.0384   -3.2564 C   0  0  0  0  0  0  0  0  0  0  0  0
    2.5197   -0.4039   -4.5681 C   0  0  0  0  0  0  0  0  0  0  0  0
    1.9547   -2.0010   -4.8487 S   0  0  0  0  0  0  0  0  0  0  0  0
    1.4642   -2.1880   -3.2117 C   0  0  0  0  0  0  0  0  0  0  0  0
    1.7200   -1.0579   -2.4657 C   0  0  0  0  0  0  0  0  0  0  0  0
   -0.5982   -2.2595   -0.2584 C   0  0  0  0  0  0  0  0  0  0  0  0
   -1.4307    1.1205   -0.1259 C   0  0  0  0  0  0  0  0  0  0  0  0
   -1.6179    0.8923    1.2556 C   0  0  0  0  0  0  0  0  0  0  0  0
   -1.5996    1.9220    2.2120 C   0  0  0  0  0  0  0  0  0  0  0  0
   -1.7917    1.6559    3.5786 C   0  0  0  0  0  0  0  0  0  0  0  0
   -1.7713    2.6863    4.5194 C   0  0  0  0  0  0  0  0  0  0  0  0
   -1.5270    4.8009    4.8350 H   0  0  0  0  0  0  0  0  0  0  0  0
   -1.1708    5.3015    2.4487 H   0  0  0  0  0  0  0  0  0  0  0  0
   -1.0246    4.5406    0.1173 H   0  0  0  0  0  0  0  0  0  0  0  0
   -0.9236    3.9134   -2.1982 H   0  0  0  0  0  0  0  0  0  0  0  0
   -0.9804    2.9150   -4.7042 H   0  0  0  0  0  0  0  0  0  0  0  0
   -1.6639   -1.4316   -3.5419 H   0  0  0  0  0  0  0  0  0  0  0  0
   -4.0361   -0.0192   -1.4358 H   0  0  0  0  0  0  0  0  0  0  0  0
   -6.3190   -0.8482   -1.3140 H   0  0  0  0  0  0  0  0  0  0  0  0
   -6.7834   -3.1249   -0.4380 H   0  0  0  0  0  0  0  0  0  0  0  0
   -4.9251   -4.5414    0.3257 H   0  0  0  0  0  0  0  0  0  0  0  0
   -2.5953   -4.8691    0.7567 H   0  0  0  0  0  0  0  0  0  0  0  0
   -0.4262   -5.3363    1.2692 H   0  0  0  0  0  0  0  0  0  0  0  0
    1.7903   -6.0070    1.8666 H   0  0  0  0  0  0  0  0  0  0  0  0
    4.2190   -5.6273    1.8573 H   0  0  0  0  0  0  0  0  0  0  0  0
    5.1416   -3.5690    0.8196 H   0  0  0  0  0  0  0  0  0  0  0  0
    3.6564   -1.9229   -0.1773 H   0  0  0  0  0  0  0  0  0  0  0  0
    1.3682   -0.1386    1.4907 H   0  0  0  0  0  0  0  0  0  0  0  0
    1.6652    1.3178    3.4289 H   0  0  0  0  0  0  0  0  0  0  0  0
    2.4181    3.4516    4.3938 H   0  0  0  0  0  0  0  0  0  0  0  0
    3.4235    5.1932    2.9398 H   0  0  0  0  0  0  0  0  0  0  0  0
    3.6772    4.7896    0.5219 H   0  0  0  0  0  0  0  0  0  0  0  0
    3.4005    3.3228   -1.4224 H   0  0  0  0  0  0  0  0  0  0  0  0
    3.2123    1.9619   -3.3841 H   0  0  0  0  0  0  0  0  0  0  0  0
    2.9541    0.1638   -5.3788 H   0  0  0  0  0  0  0  0  0  0  0  0
    1.0158   -3.1215   -2.9006 H   0  0  0  0  0  0  0  0  0  0  0  0
   -1.7851   -0.1231    1.6122 H   0  0  0  0  0  0  0  0  0  0  0  0
   -1.9586    0.6369    3.9197 H   0  0  0  0  0  0  0  0  0  0  0  0
   -1.9241    2.4651    5.5723 H   0  0  0  0  0  0  0  0  0  0  0  0
  1  2  4  0
  2  3  4  0
  3  4  4  0
  4  5  4  0
  5  6  4  0
  6  7  4  0
  7  8  4  0
  8  9  4  0
  9 10  4  0
 10 11  4  0
 11 12  4  0
 12 13  1  0
 13 14  4  0
 14 15  4  0
 15 16  4  0
 16 17  4  0
 17 18  4  0
 18 19  4  0
 19 20  4  0
 20 21  4  0
 21 22  4  0
 22 23  4  0
 23 24  4  0
 24 25  4  0
 25 26  4  0
 26 27  4  0
 27 28  4  0
 28 29  4  0
 29 30  1  0
 30 31  4  0
 31 32  4  0
 32 33  4  0
 33 34  4  0
 34 35  4  0
 35 36  4  0
 36 37  4  0
 37 38  4  0
 38 39  4  0
 39 40  4  0
 40 41  4  0
 41 42  4  0
 42 43  4  0
 43 44  4  0
 44 45  4  0
 45 46  4  0
 29 47  4  0
 12 48  4  0
 48 49  4  0
 49 50  4  0
 50 51  4  0
 51 52  4  0
 52  1  4  0
 50  3  4  0
 48  5  4  0
 11  7  4  0
 47 13  4  0
 19 14  4  0
 47 21  4  0
 28 23  4  0
 46 30  4  0
 40 31  4  0
 46 42  4  0
 38 33  4  0
  1 53  1  0
  2 54  1  0
  4 55  1  0
  6 56  1  0
  8 57  1  0
 10 58  1  0
 15 59  1  0
 16 60  1  0
 17 61  1  0
 18 62  1  0
 20 63  1  0
 22 64  1  0
 24 65  1  0
 25 66  1  0
 26 67  1  0
 27 68  1  0
 32 69  1  0
 34 70  1  0
 35 71  1  0
 36 72  1  0
 37 73  1  0
 39 74  1  0
 41 75  1  0
 43 76  1  0
 45 77  1  0
 49 78  1  0
 51 79  1  0
 52 80  1  0
M  END
