
     RDKit          3D

 80 91  0  0  0  0  0  0  0  0999 V2000
   -2.9647    0.8019   -3.2074 C   0  0  0  0  0  0  0  0  0  0  0  0
   -3.2986   -0.3871   -2.5675 C   0  0  0  0  0  0  0  0  0  0  0  0
   -2.8512   -0.6591   -1.2657 C   0  0  0  0  0  0  0  0  0  0  0  0
   -3.2245   -1.8583   -0.6351 C   0  0  0  0  0  0  0  0  0  0  0  0
   -2.8274   -2.1691    0.6698 C   0  0  0  0  0  0  0  0  0  0  0  0
   -3.2497   -3.4021    1.2314 C   0  0  0  0  0  0  0  0  0  0  0  0
   -2.7869   -3.5864    2.5329 C   0  0  0  0  0  0  0  0  0  0  0  0
   -3.0671   -4.7045    3.2782 C   0  0  0  0  0  0  0  0  0  0  0  0
   -2.3415   -4.6089    4.8369 S   0  0  0  0  0  0  0  0  0  0  0  0
   -1.6535   -3.0658    4.5045 C   0  0  0  0  0  0  0  0  0  0  0  0
   -1.9743   -2.6438    3.2385 C   0  0  0  0  0  0  0  0  0  0  0  0
   -1.5478   -1.4271    2.7099 C   0  0  0  0  0  0  0  0  0  0  0  0
   -2.0064   -1.2143    1.3846 C   0  0  0  0  0  0  0  0  0  0  0  0
   -1.6436   -0.0263    0.7361 C   0  0  0  0  0  0  0  0  0  0  0  0
   -2.0367    0.2791   -0.5884 C   0  0  0  0  0  0  0  0  0  0  0  0
   -1.6655    1.4830   -1.2600 C   0  0  0  0  0  0  0  0  0  0  0  0
   -0.8774    2.5638   -0.6054 C   0  0  0  0  0  0  0  0  0  0  0  0
   -1.6388    3.5189    0.1741 C   0  0  0  0  0  0  0  0  0  0  0  0
   -3.0418    3.4481    0.4007 C   0  0  0  0  0  0  0  0  0  0  0  0
   -3.7310    4.3936    1.1651 C   0  0  0  0  0  0  0  0  0  0  0  0
   -3.0410    5.4521    1.7309 C   0  0  0  0  0  0  0  0  0  0  0  0
   -1.6688    5.5582    1.5259 C   0  0  0  0  0  0  0  0  0  0  0  0
   -0.9713    4.6074    0.7570 C   0  0  0  0  0  0  0  0  0  0  0  0
    0.3990    4.7495    0.5590 C   0  0  0  0  0  0  0  0  0  0  0  0
    1.1547    3.8382   -0.1889 C   0  0  0  0  0  0  0  0  0  0  0  0
    2.5204    4.1246   -0.3094 C   0  0  0  0  0  0  0  0  0  0  0  0
    3.4014    3.3076   -1.0122 C   0  0  0  0  0  0  0  0  0  0  0  0
    4.7623    3.6568   -1.0984 C   0  0  0  0  0  0  0  0  0  0  0  0
    5.6702    2.8529   -1.7810 C   0  0  0  0  0  0  0  0  0  0  0  0
    5.2256    1.6881   -2.3831 C   0  0  0  0  0  0  0  0  0  0  0  0
    3.8751    1.3383   -2.2999 C   0  0  0  0  0  0  0  0  0  0  0  0
    2.9168    2.1366   -1.6153 C   0  0  0  0  0  0  0  0  0  0  0  0
    1.5095    1.8163   -1.4956 C   0  0  0  0  0  0  0  0  0  0  0  0
    1.0843    0.5191   -2.0883 C   0  0  0  0  0  0  0  0  0  0  0  0
    0.6950    0.4949   -3.4412 C   0  0  0  0  0  0  0  0  0  0  0  0
    0.3355   -0.6967   -4.0601 C   0  0  0  0  0  0  0  0  0  0  0  0
    0.3737   -1.8869   -3.3402 C   0  0  0  0  0  0  0  0  0  0  0  0
    0.7942   -1.9111   -2.0019 C   0  0  0  0  0  0  0  0  0  0  0  0
    0.8504   -3.1313   -1.3059 C   0  0  0  0  0  0  0  0  0  0  0  0
    1.2917   -3.2154    0.0193 C   0  0  0  0  0  0  0  0  0  0  0  0
    1.3204   -4.4884    0.6456 C   0  0  0  0  0  0  0  0  0  0  0  0
    1.7853   -4.4323    1.9583 C   0  0  0  0  0  0  0  0  0  0  0  0
    1.9012   -5.5390    2.7620 C   0  0  0  0  0  0  0  0  0  0  0  0
    2.5054   -5.1152    4.3179 S   0  0  0  0  0  0  0  0  0  0  0  0
    2.6090   -3.4465    3.9059 C   0  0  0  0  0  0  0  0  0  0  0  0
    2.1924   -3.2289    2.6162 C   0  0  0  0  0  0  0  0  0  0  0  0
    2.1727   -1.9676    2.0243 C   0  0  0  0  0  0  0  0  0  0  0  0
    1.7025   -1.9975    0.6859 C   0  0  0  0  0  0  0  0  0  0  0  0
    1.6285   -0.7911   -0.0231 C   0  0  0  0  0  0  0  0  0  0  0  0
    1.1704   -0.7082   -1.3609 C   0  0  0  0  0  0  0  0  0  0  0  0
    0.5712    2.6927   -0.7889 C   0  0  0  0  0  0  0  0  0  0  0  0
   -2.1602    1.7301   -2.5570 C   0  0  0  0  0  0  0  0  0  0  0  0
   -3.3285    1.0038   -4.2107 H   0  0  0  0  0  0  0  0  0  0  0  0
   -3.9250   -1.1034   -3.0947 H   0  0  0  0  0  0  0  0  0  0  0  0
   -3.8462   -2.5660   -1.1817 H   0  0  0  0  0  0  0  0  0  0  0  0
   -3.8642   -4.1172    0.7004 H   0  0  0  0  0  0  0  0  0  0  0  0
   -3.6517   -5.5729    3.0083 H   0  0  0  0  0  0  0  0  0  0  0  0
   -1.0587   -2.5670    5.2571 H   0  0  0  0  0  0  0  0  0  0  0  0
   -0.9304   -0.7165    3.2443 H   0  0  0  0  0  0  0  0  0  0  0  0
   -1.0200    0.6865    1.2743 H   0  0  0  0  0  0  0  0  0  0  0  0
   -3.6289    2.6339   -0.0210 H   0  0  0  0  0  0  0  0  0  0  0  0
   -4.8029    4.2939    1.3133 H   0  0  0  0  0  0  0  0  0  0  0  0
   -3.5654    6.1932    2.3273 H   0  0  0  0  0  0  0  0  0  0  0  0
   -1.1415    6.3982    1.9738 H   0  0  0  0  0  0  0  0  0  0  0  0
    0.8964    5.6095    1.0087 H   0  0  0  0  0  0  0  0  0  0  0  0
    2.9189    5.0237    0.1622 H   0  0  0  0  0  0  0  0  0  0  0  0
    5.1285    4.5665   -0.6266 H   0  0  0  0  0  0  0  0  0  0  0  0
    6.7176    3.1351   -1.8376 H   0  0  0  0  0  0  0  0  0  0  0  0
    5.9204    1.0452   -2.9167 H   0  0  0  0  0  0  0  0  0  0  0  0
    3.5752    0.4114   -2.7860 H   0  0  0  0  0  0  0  0  0  0  0  0
    0.6653    1.4204   -4.0127 H   0  0  0  0  0  0  0  0  0  0  0  0
    0.0187   -0.6968   -5.0989 H   0  0  0  0  0  0  0  0  0  0  0  0
    0.0786   -2.8068   -3.8401 H   0  0  0  0  0  0  0  0  0  0  0  0
    0.5432   -4.0414   -1.8194 H   0  0  0  0  0  0  0  0  0  0  0  0
    1.0139   -5.4009    0.1509 H   0  0  0  0  0  0  0  0  0  0  0  0
    1.6701   -6.5708    2.5367 H   0  0  0  0  0  0  0  0  0  0  0  0
    2.9679   -2.7324    4.6341 H   0  0  0  0  0  0  0  0  0  0  0  0
    2.4796   -1.0579    2.5243 H   0  0  0  0  0  0  0  0  0  0  0  0
    1.9318    0.1238    0.4844 H   0  0  0  0  0  0  0  0  0  0  0  0
   -1.9117    2.6619   -3.0618 H   0  0  0  0  0  0  0  0  0  0  0  0
  1  2  4  0
  2  3  4  0
  3  4  4  0
  4  5  4  0
  5  6  4  0
  6  7  4  0
  7  8  4  0
  8  9  4  0
  9 10  4  0
 10 11  4  0
 11 12  4  0
 12 13  4  0
 13 14  4  0
 14 15  4  0
 15 16  4  0
 16 17  1  0
 17 18  4  0
 18 19  4  0
 19 20  4  0
 20 21  4  0
 21 22  4  0
 22 23  4  0
 23 24  4  0
 24 25  4  0
 25 26  4  0
 26 27  4  0
 27 28  4  0
 28 29  4  0
 29 30  4  0
 30 31  4  0
 31 32  4  0
 32 33  4  0
 33 34  1  0
 34 35  4  0
 35 36  4  0
 36 37  4  0
 37 38  4  0
 38 39  4  0
 39 40  4  0
 40 41  4  0
 41 42  4  0
 42 43  4  0
 43 44  4  0
 44 45  4  0
 45 46  4  0
 46 47  4  0
 47 48  4  0
 48 49  4  0
 49 50  4  0
 33 51  4  0
 16 52  4  0
 52  1  4  0
 15  3  4  0
 51 17  4  0
 13  5  4  0
 23 18  4  0
 51 25  4  0
 11  7  4  0
 32 27  4  0
 50 34  4  0
 50 38  4  0
 48 40  4  0
 46 42  4  0
  1 53  1  0
  2 54  1  0
  4 55  1  0
  6 56  1  0
  8 57  1  0
 10 58  1  0
 12 59  1  0
 14 60  1  0
 19 61  1  0
 20 62  1  0
 21 63  1  0
 22 64  1  0
 24 65  1  0
 26 66  1  0
 28 67  1  0
 29 68  1  0
 30 69  1  0
 31 70  1  0
 35 71  1  0
 36 72  1  0
 37 73  1  0
 39 74  1  0
 41 75  1  0
 43 76  1  0
 45 77  1  0
 47 78  1  0
 49 79  1  0
 52 80  1  0
M  END
