
     RDKit          3D

 78 89  0  0  0  0  0  0  0  0999 V2000
    1.8843    3.4189    2.7869 C   0  0  0  0  0  0  0  0  0  0  0  0
    2.0749    4.2554    1.6891 C   0  0  0  0  0  0  0  0  0  0  0  0
    2.0903    3.7330    0.3880 C   0  0  0  0  0  0  0  0  0  0  0  0
    1.9155    2.3420    0.1919 C   0  0  0  0  0  0  0  0  0  0  0  0
    1.7372    1.4975    1.3084 C   0  0  0  0  0  0  0  0  0  0  0  0
    1.7236    2.0480    2.5981 C   0  0  0  0  0  0  0  0  0  0  0  0
    1.5569    0.1246    1.1071 C   0  0  0  0  0  0  0  0  0  0  0  0
    1.5119   -0.4323   -0.1849 C   0  0  0  0  0  0  0  0  0  0  0  0
    1.3394   -1.9045   -0.3256 C   0  0  0  0  0  0  0  0  0  0  0  0
    2.5521   -2.6925   -0.3264 C   0  0  0  0  0  0  0  0  0  0  0  0
    3.8558   -2.1719   -0.0979 C   0  0  0  0  0  0  0  0  0  0  0  0
    4.9991   -2.9752   -0.1106 C   0  0  0  0  0  0  0  0  0  0  0  0
    4.8804   -4.3326   -0.3576 C   0  0  0  0  0  0  0  0  0  0  0  0
    3.6210   -4.8757   -0.5945 C   0  0  0  0  0  0  0  0  0  0  0  0
    2.4667   -4.0703   -0.5830 C   0  0  0  0  0  0  0  0  0  0  0  0
    1.2225   -4.6375   -0.8486 C   0  0  0  0  0  0  0  0  0  0  0  0
    0.0350   -3.8943   -0.8401 C   0  0  0  0  0  0  0  0  0  0  0  0
   -1.1400   -4.5936   -1.1447 C   0  0  0  0  0  0  0  0  0  0  0  0
   -2.3945   -3.9883   -1.1560 C   0  0  0  0  0  0  0  0  0  0  0  0
   -3.5353   -4.7451   -1.4839 C   0  0  0  0  0  0  0  0  0  0  0  0
   -4.8045   -4.1738   -1.4795 C   0  0  0  0  0  0  0  0  0  0  0  0
   -4.9464   -2.8383   -1.1421 C   0  0  0  0  0  0  0  0  0  0  0  0
   -3.8167   -2.0832   -0.8161 C   0  0  0  0  0  0  0  0  0  0  0  0
   -2.5036   -2.6298   -0.8190 C   0  0  0  0  0  0  0  0  0  0  0  0
   -1.3041   -1.8922   -0.4895 C   0  0  0  0  0  0  0  0  0  0  0  0
   -1.5017   -0.4960   -0.0121 C   0  0  0  0  0  0  0  0  0  0  0  0
   -1.5651    0.5414   -0.9615 C   0  0  0  0  0  0  0  0  0  0  0  0
   -1.7726    1.8717   -0.5815 C   0  0  0  0  0  0  0  0  0  0  0  0
   -1.7846    2.9021   -1.5324 C   0  0  0  0  0  0  0  0  0  0  0  0
   -1.9725    4.2261   -1.1425 C   0  0  0  0  0  0  0  0  0  0  0  0
   -2.1585    4.5356    0.2032 C   0  0  0  0  0  0  0  0  0  0  0  0
   -2.1566    3.5251    1.1757 C   0  0  0  0  0  0  0  0  0  0  0  0
   -1.9564    2.1799    0.7834 C   0  0  0  0  0  0  0  0  0  0  0  0
   -1.9324    1.1481    1.7557 C   0  0  0  0  0  0  0  0  0  0  0  0
   -2.1222    1.4790    3.1218 C   0  0  0  0  0  0  0  0  0  0  0  0
   -2.0973    0.4698    4.0912 C   0  0  0  0  0  0  0  0  0  0  0  0
   -1.8884   -0.8540    3.7242 C   0  0  0  0  0  0  0  0  0  0  0  0
   -1.6986   -1.1816    2.3826 C   0  0  0  0  0  0  0  0  0  0  0  0
   -1.7093   -0.1981    1.3668 C   0  0  0  0  0  0  0  0  0  0  0  0
   -2.3280    2.8140    3.4911 C   0  0  0  0  0  0  0  0  0  0  0  0
   -2.3442    3.8250    2.5301 C   0  0  0  0  0  0  0  0  0  0  0  0
    0.0230   -2.5091   -0.5397 C   0  0  0  0  0  0  0  0  0  0  0  0
    1.7125    0.4095   -1.3183 C   0  0  0  0  0  0  0  0  0  0  0  0
    1.7201   -0.0701   -2.6485 C   0  0  0  0  0  0  0  0  0  0  0  0
    1.9044    0.7826   -3.7356 C   0  0  0  0  0  0  0  0  0  0  0  0
    2.0879    2.1437   -3.5248 C   0  0  0  0  0  0  0  0  0  0  0  0
    2.0933    2.6663   -2.2265 C   0  0  0  0  0  0  0  0  0  0  0  0
    1.9102    1.8003   -1.1183 C   0  0  0  0  0  0  0  0  0  0  0  0
    2.2728    4.0387   -2.0137 C   0  0  0  0  0  0  0  0  0  0  0  0
    2.2679    4.5664   -0.7224 C   0  0  0  0  0  0  0  0  0  0  0  0
    1.8448    3.8369    3.7886 H   0  0  0  0  0  0  0  0  0  0  0  0
    2.1955    5.3229    1.8569 H   0  0  0  0  0  0  0  0  0  0  0  0
    1.5626    1.4110    3.4649 H   0  0  0  0  0  0  0  0  0  0  0  0
    1.4222   -0.5307    1.9665 H   0  0  0  0  0  0  0  0  0  0  0  0
    3.9993   -1.1102    0.0978 H   0  0  0  0  0  0  0  0  0  0  0  0
    5.9749   -2.5330    0.0715 H   0  0  0  0  0  0  0  0  0  0  0  0
    5.7619   -4.9671   -0.3704 H   0  0  0  0  0  0  0  0  0  0  0  0
    3.5458   -5.9429   -0.7937 H   0  0  0  0  0  0  0  0  0  0  0  0
    1.1799   -5.7047   -1.0690 H   0  0  0  0  0  0  0  0  0  0  0  0
   -1.0787   -5.6549   -1.3866 H   0  0  0  0  0  0  0  0  0  0  0  0
   -3.4414   -5.7973   -1.7449 H   0  0  0  0  0  0  0  0  0  0  0  0
   -5.6753   -4.7712   -1.7343 H   0  0  0  0  0  0  0  0  0  0  0  0
   -5.9297   -2.3758   -1.1284 H   0  0  0  0  0  0  0  0  0  0  0  0
   -3.9787   -1.0385   -0.5546 H   0  0  0  0  0  0  0  0  0  0  0  0
   -1.4252    0.2992   -2.0141 H   0  0  0  0  0  0  0  0  0  0  0  0
   -1.6253    2.6789   -2.5850 H   0  0  0  0  0  0  0  0  0  0  0  0
   -1.9651    5.0169   -1.8869 H   0  0  0  0  0  0  0  0  0  0  0  0
   -2.2939    5.5755    0.4898 H   0  0  0  0  0  0  0  0  0  0  0  0
   -2.2406    0.7087    5.1422 H   0  0  0  0  0  0  0  0  0  0  0  0
   -1.8713   -1.6344    4.4798 H   0  0  0  0  0  0  0  0  0  0  0  0
   -1.5356   -2.2288    2.1352 H   0  0  0  0  0  0  0  0  0  0  0  0
   -2.4693    3.0828    4.5353 H   0  0  0  0  0  0  0  0  0  0  0  0
   -2.4989    4.8526    2.8508 H   0  0  0  0  0  0  0  0  0  0  0  0
    1.5771   -1.1292   -2.8542 H   0  0  0  0  0  0  0  0  0  0  0  0
    1.9036    0.3812   -4.7454 H   0  0  0  0  0  0  0  0  0  0  0  0
    2.2265    2.7952   -4.3839 H   0  0  0  0  0  0  0  0  0  0  0  0
    2.4120    4.7143   -2.8545 H   0  0  0  0  0  0  0  0  0  0  0  0
    2.3974    5.6380   -0.5910 H   0  0  0  0  0  0  0  0  0  0  0  0
  1  2  4  0
  2  3  4  0
  3  4  4  0
  4  5  4  0
  5  6  4  0
  5  7  4  0
  7  8  4  0
  8  9  1  0
  9 10  4  0
 10 11  4  0
 11 12  4  0
 12 13  4  0
 13 14  4  0
 14 15  4  0
 15 16  4  0
 16 17  4  0
 17 18  4  0
 18 19  4  0
 19 20  4  0
 20 21  4  0
 21 22  4  0
 22 23  4  0
 23 24  4  0
 24 25  4  0
 25 26  1  0
 26 27  4  0
 27 28  4  0
 28 29  4  0
 29 30  4  0
 30 31  4  0
 31 32  4  0
 32 33  4  0
 33 34  4  0
 34 35  4  0
 35 36  4  0
 36 37  4  0
 37 38  4  0
 38 39  4  0
 35 40  4  0
 40 41  4  0
 25 42  4  0
  8 43  4  0
 43 44  4  0
 44 45  4  0
 45 46  4  0
 46 47  4  0
 47 48  4  0
 47 49  4  0
 49 50  4  0
  6  1  4  0
 42  9  4  0
 48 43  4  0
 50  3  4  0
 48  4  4  0
 15 10  4  0
 42 17  4  0
 24 19  4  0
 39 26  4  0
 33 28  4  0
 39 34  4  0
 41 32  4  0
  1 51  1  0
  2 52  1  0
  6 53  1  0
  7 54  1  0
 11 55  1  0
 12 56  1  0
 13 57  1  0
 14 58  1  0
 16 59  1  0
 18 60  1  0
 20 61  1  0
 21 62  1  0
 22 63  1  0
 23 64  1  0
 27 65  1  0
 29 66  1  0
 30 67  1  0
 31 68  1  0
 36 69  1  0
 37 70  1  0
 38 71  1  0
 40 72  1  0
 41 73  1  0
 44 74  1  0
 45 75  1  0
 46 76  1  0
 49 77  1  0
 50 78  1  0
M  END
