
     RDKit          3D

 78 89  0  0  0  0  0  0  0  0999 V2000
    3.1201   -4.7009   -1.2571 C   0  0  0  0  0  0  0  0  0  0  0  0
    3.3189   -3.7163   -0.2918 C   0  0  0  0  0  0  0  0  0  0  0  0
    2.7487   -2.4440   -0.4427 C   0  0  0  0  0  0  0  0  0  0  0  0
    1.9669   -2.1575   -1.5846 C   0  0  0  0  0  0  0  0  0  0  0  0
    1.7760   -3.1578   -2.5670 C   0  0  0  0  0  0  0  0  0  0  0  0
    2.3556   -4.4228   -2.3885 C   0  0  0  0  0  0  0  0  0  0  0  0
    1.0101   -2.8669   -3.7013 C   0  0  0  0  0  0  0  0  0  0  0  0
    0.4371   -1.6056   -3.8680 C   0  0  0  0  0  0  0  0  0  0  0  0
    0.6109   -0.6053   -2.9033 C   0  0  0  0  0  0  0  0  0  0  0  0
    0.0372    0.6578   -3.0756 C   0  0  0  0  0  0  0  0  0  0  0  0
    0.1835    1.6405   -2.0994 C   0  0  0  0  0  0  0  0  0  0  0  0
    0.8957    1.3840   -0.9154 C   0  0  0  0  0  0  0  0  0  0  0  0
    1.0373    2.4745    0.0867 C   0  0  0  0  0  0  0  0  0  0  0  0
    2.1878    3.3379   -0.0723 C   0  0  0  0  0  0  0  0  0  0  0  0
    3.1090    3.2701   -1.1543 C   0  0  0  0  0  0  0  0  0  0  0  0
    4.2106    4.1232   -1.2596 C   0  0  0  0  0  0  0  0  0  0  0  0
    4.4341    5.0775   -0.2815 C   0  0  0  0  0  0  0  0  0  0  0  0
    3.5572    5.1685    0.7955 C   0  0  0  0  0  0  0  0  0  0  0  0
    2.4464    4.3107    0.9054 C   0  0  0  0  0  0  0  0  0  0  0  0
    1.5988    4.4106    2.0060 C   0  0  0  0  0  0  0  0  0  0  0  0
    0.4718    3.5949    2.1717 C   0  0  0  0  0  0  0  0  0  0  0  0
   -0.2772    3.8038    3.3369 C   0  0  0  0  0  0  0  0  0  0  0  0
   -1.4303    3.0805    3.6307 C   0  0  0  0  0  0  0  0  0  0  0  0
   -2.1309    3.3342    4.8251 C   0  0  0  0  0  0  0  0  0  0  0  0
   -3.2967    2.6412    5.1376 C   0  0  0  0  0  0  0  0  0  0  0  0
   -3.7764    1.6881    4.2552 C   0  0  0  0  0  0  0  0  0  0  0  0
   -3.0845    1.4340    3.0680 C   0  0  0  0  0  0  0  0  0  0  0  0
   -1.8864    2.1166    2.7177 C   0  0  0  0  0  0  0  0  0  0  0  0
   -1.1328    1.8900    1.5029 C   0  0  0  0  0  0  0  0  0  0  0  0
   -1.7434    0.9517    0.5210 C   0  0  0  0  0  0  0  0  0  0  0  0
   -2.6205    1.4963   -0.4372 C   0  0  0  0  0  0  0  0  0  0  0  0
   -3.2708    0.6862   -1.3646 C   0  0  0  0  0  0  0  0  0  0  0  0
   -3.0615   -0.6950   -1.3645 C   0  0  0  0  0  0  0  0  0  0  0  0
   -3.6893   -1.5094   -2.3153 C   0  0  0  0  0  0  0  0  0  0  0  0
   -3.4760   -2.8881   -2.3268 C   0  0  0  0  0  0  0  0  0  0  0  0
   -2.6351   -3.4870   -1.3823 C   0  0  0  0  0  0  0  0  0  0  0  0
   -2.4094   -4.8715   -1.3886 C   0  0  0  0  0  0  0  0  0  0  0  0
   -1.5668   -5.4579   -0.4462 C   0  0  0  0  0  0  0  0  0  0  0  0
   -0.9458   -4.6679    0.5190 C   0  0  0  0  0  0  0  0  0  0  0  0
   -1.1612   -3.2825    0.5554 C   0  0  0  0  0  0  0  0  0  0  0  0
   -2.0027   -2.6802   -0.4060 C   0  0  0  0  0  0  0  0  0  0  0  0
   -2.2069   -1.2746   -0.3956 C   0  0  0  0  0  0  0  0  0  0  0  0
   -1.5594   -0.4595    0.5701 C   0  0  0  0  0  0  0  0  0  0  0  0
   -0.7567   -1.1004    1.5367 C   0  0  0  0  0  0  0  0  0  0  0  0
   -0.5561   -2.4825    1.5270 C   0  0  0  0  0  0  0  0  0  0  0  0
    0.1100    2.6136    1.2143 C   0  0  0  0  0  0  0  0  0  0  0  0
    1.5398    0.1216   -0.7481 C   0  0  0  0  0  0  0  0  0  0  0  0
    1.3747   -0.8756   -1.7432 C   0  0  0  0  0  0  0  0  0  0  0  0
    2.3431   -0.1960    0.3699 C   0  0  0  0  0  0  0  0  0  0  0  0
    2.9380   -1.4505    0.5198 C   0  0  0  0  0  0  0  0  0  0  0  0
    3.5648   -5.6841   -1.1298 H   0  0  0  0  0  0  0  0  0  0  0  0
    3.9225   -3.9500    0.5821 H   0  0  0  0  0  0  0  0  0  0  0  0
    2.2142   -5.2028   -3.1330 H   0  0  0  0  0  0  0  0  0  0  0  0
    0.8487   -3.6222   -4.4668 H   0  0  0  0  0  0  0  0  0  0  0  0
   -0.1562   -1.4138   -4.7588 H   0  0  0  0  0  0  0  0  0  0  0  0
   -0.5462    0.8845   -3.9642 H   0  0  0  0  0  0  0  0  0  0  0  0
   -0.2786    2.6133   -2.2537 H   0  0  0  0  0  0  0  0  0  0  0  0
    2.9776    2.5330   -1.9451 H   0  0  0  0  0  0  0  0  0  0  0  0
    4.8876    4.0325   -2.1048 H   0  0  0  0  0  0  0  0  0  0  0  0
    5.2880    5.7452   -0.3508 H   0  0  0  0  0  0  0  0  0  0  0  0
    3.7509    5.9185    1.5597 H   0  0  0  0  0  0  0  0  0  0  0  0
    1.8285    5.1594    2.7647 H   0  0  0  0  0  0  0  0  0  0  0  0
    0.0501    4.5609    4.0499 H   0  0  0  0  0  0  0  0  0  0  0  0
   -1.7698    4.0838    5.5264 H   0  0  0  0  0  0  0  0  0  0  0  0
   -3.8261    2.8479    6.0634 H   0  0  0  0  0  0  0  0  0  0  0  0
   -4.6856    1.1374    4.4812 H   0  0  0  0  0  0  0  0  0  0  0  0
   -3.4999    0.6739    2.4081 H   0  0  0  0  0  0  0  0  0  0  0  0
   -2.7951    2.5703   -0.4605 H   0  0  0  0  0  0  0  0  0  0  0  0
   -3.9318    1.1482   -2.0936 H   0  0  0  0  0  0  0  0  0  0  0  0
   -4.3485   -1.0760   -3.0638 H   0  0  0  0  0  0  0  0  0  0  0  0
   -3.9736   -3.4908   -3.0829 H   0  0  0  0  0  0  0  0  0  0  0  0
   -2.8851   -5.5041   -2.1342 H   0  0  0  0  0  0  0  0  0  0  0  0
   -1.3910   -6.5300   -0.4657 H   0  0  0  0  0  0  0  0  0  0  0  0
   -0.2821   -5.1405    1.2391 H   0  0  0  0  0  0  0  0  0  0  0  0
   -0.2474   -0.5191    2.3023 H   0  0  0  0  0  0  0  0  0  0  0  0
    0.0967   -2.9212    2.2774 H   0  0  0  0  0  0  0  0  0  0  0  0
    2.5073    0.5371    1.1566 H   0  0  0  0  0  0  0  0  0  0  0  0
    3.5380   -1.6437    1.4054 H   0  0  0  0  0  0  0  0  0  0  0  0
  1  2  4  0
  2  3  4  0
  3  4  4  0
  4  5  4  0
  5  6  4  0
  5  7  4  0
  7  8  4  0
  8  9  4  0
  9 10  4  0
 10 11  4  0
 11 12  4  0
 12 13  1  0
 13 14  4  0
 14 15  4  0
 15 16  4  0
 16 17  4  0
 17 18  4  0
 18 19  4  0
 19 20  4  0
 20 21  4  0
 21 22  4  0
 22 23  4  0
 23 24  4  0
 24 25  4  0
 25 26  4  0
 26 27  4  0
 27 28  4  0
 28 29  4  0
 29 30  1  0
 30 31  4  0
 31 32  4  0
 32 33  4  0
 33 34  4  0
 34 35  4  0
 35 36  4  0
 36 37  4  0
 37 38  4  0
 38 39  4  0
 39 40  4  0
 40 41  4  0
 41 42  4  0
 42 43  4  0
 43 44  4  0
 44 45  4  0
 29 46  4  0
 12 47  4  0
 47 48  4  0
 47 49  4  0
 49 50  4  0
  6  1  4  0
 48  9  4  0
 50  3  4  0
 48  4  4  0
 46 13  4  0
 19 14  4  0
 46 21  4  0
 28 23  4  0
 43 30  4  0
 42 33  4  0
 41 36  4  0
 45 40  4  0
  1 51  1  0
  2 52  1  0
  6 53  1  0
  7 54  1  0
  8 55  1  0
 10 56  1  0
 11 57  1  0
 15 58  1  0
 16 59  1  0
 17 60  1  0
 18 61  1  0
 20 62  1  0
 22 63  1  0
 24 64  1  0
 25 65  1  0
 26 66  1  0
 27 67  1  0
 31 68  1  0
 32 69  1  0
 34 70  1  0
 35 71  1  0
 37 72  1  0
 38 73  1  0
 39 74  1  0
 44 75  1  0
 45 76  1  0
 49 77  1  0
 50 78  1  0
M  END
