
     RDKit          3D

110125  0  0  0  0  0  0  0  0999 V2000
   -0.8499   -6.7068    2.0833 C   0  0  0  0  0  0  0  0  0  0  0  0
   -0.9948   -5.9517    3.2426 C   0  0  0  0  0  0  0  0  0  0  0  0
   -0.6143   -4.6088    3.2494 C   0  0  0  0  0  0  0  0  0  0  0  0
   -0.0804   -4.0057    2.0977 C   0  0  0  0  0  0  0  0  0  0  0  0
    0.3040   -2.6536    2.0838 C   0  0  0  0  0  0  0  0  0  0  0  0
    0.8446   -2.0151    0.9355 C   0  0  0  0  0  0  0  0  0  0  0  0
    1.0000   -2.8080   -0.2193 C   0  0  0  0  0  0  0  0  0  0  0  0
    0.6037   -4.1583   -0.2160 C   0  0  0  0  0  0  0  0  0  0  0  0
    0.0685   -4.7690    0.9275 C   0  0  0  0  0  0  0  0  0  0  0  0
   -0.3234   -6.1188    0.9319 C   0  0  0  0  0  0  0  0  0  0  0  0
    1.5562   -2.2478   -1.3742 C   0  0  0  0  0  0  0  0  0  0  0  0
    2.0003   -0.9208   -1.4157 C   0  0  0  0  0  0  0  0  0  0  0  0
    2.5864   -0.4202   -2.5908 C   0  0  0  0  0  0  0  0  0  0  0  0
    3.0599    0.8963   -2.6752 C   0  0  0  0  0  0  0  0  0  0  0  0
    3.6333    1.3975   -3.8567 C   0  0  0  0  0  0  0  0  0  0  0  0
    4.0909    2.7223   -3.9417 C   0  0  0  0  0  0  0  0  0  0  0  0
    4.6531    3.2310   -5.1246 C   0  0  0  0  0  0  0  0  0  0  0  0
    5.0948    4.5533   -5.1935 C   0  0  0  0  0  0  0  0  0  0  0  0
    4.9808    5.3826   -4.0819 C   0  0  0  0  0  0  0  0  0  0  0  0
    4.4269    4.8902   -2.8994 C   0  0  0  0  0  0  0  0  0  0  0  0
    3.9786    3.5622   -2.8140 C   0  0  0  0  0  0  0  0  0  0  0  0
    3.4162    3.0537   -1.6319 C   0  0  0  0  0  0  0  0  0  0  0  0
    2.9531    1.7299   -1.5507 C   0  0  0  0  0  0  0  0  0  0  0  0
    2.3705    1.2234   -0.3748 C   0  0  0  0  0  0  0  0  0  0  0  0
    1.8644   -0.0963   -0.2791 C   0  0  0  0  0  0  0  0  0  0  0  0
    1.2411   -0.6320    0.8938 C   0  0  0  0  0  0  0  0  0  0  0  0
    1.0901    0.1918    2.1365 C   0  0  0  0  0  0  0  0  0  0  0  0
    2.2044    0.1619    3.0609 C   0  0  0  0  0  0  0  0  0  0  0  0
    3.4743   -0.4147    2.7831 C   0  0  0  0  0  0  0  0  0  0  0  0
    4.5176   -0.4220    3.7133 C   0  0  0  0  0  0  0  0  0  0  0  0
    4.3266    0.1417    4.9637 C   0  0  0  0  0  0  0  0  0  0  0  0
    3.0916    0.7022    5.2762 C   0  0  0  0  0  0  0  0  0  0  0  0
    2.0380    0.7119    4.3417 C   0  0  0  0  0  0  0  0  0  0  0  0
    0.7995    1.2405    4.6980 C   0  0  0  0  0  0  0  0  0  0  0  0
   -0.2857    1.2928    3.8133 C   0  0  0  0  0  0  0  0  0  0  0  0
   -1.4802    1.8175    4.3235 C   0  0  0  0  0  0  0  0  0  0  0  0
   -2.6315    1.9587    3.5522 C   0  0  0  0  0  0  0  0  0  0  0  0
   -3.8047    2.4773    4.1324 C   0  0  0  0  0  0  0  0  0  0  0  0
   -4.9571    2.6703    3.3763 C   0  0  0  0  0  0  0  0  0  0  0  0
   -4.9459    2.3526    2.0287 C   0  0  0  0  0  0  0  0  0  0  0  0
   -3.7835    1.8368    1.4493 C   0  0  0  0  0  0  0  0  0  0  0  0
   -2.5920    1.6121    2.1926 C   0  0  0  0  0  0  0  0  0  0  0  0
   -1.3615    1.0854    1.6408 C   0  0  0  0  0  0  0  0  0  0  0  0
   -1.3021    0.9805    0.1467 C   0  0  0  0  0  0  0  0  0  0  0  0
   -1.7863   -0.1831   -0.5340 C   0  0  0  0  0  0  0  0  0  0  0  0
   -2.3364   -1.3124    0.1204 C   0  0  0  0  0  0  0  0  0  0  0  0
   -2.7786   -2.4523   -0.5748 C   0  0  0  0  0  0  0  0  0  0  0  0
   -3.2871   -3.5742    0.1001 C   0  0  0  0  0  0  0  0  0  0  0  0
   -3.7006   -4.7219   -0.5948 C   0  0  0  0  0  0  0  0  0  0  0  0
   -4.1855   -5.8519    0.0825 C   0  0  0  0  0  0  0  0  0  0  0  0
   -4.5882   -6.9879   -0.6209 C   0  0  0  0  0  0  0  0  0  0  0  0
   -4.5144   -7.0073   -2.0103 C   0  0  0  0  0  0  0  0  0  0  0  0
   -4.0328   -5.8920   -2.6976 C   0  0  0  0  0  0  0  0  0  0  0  0
   -3.6192   -4.7430   -2.0029 C   0  0  0  0  0  0  0  0  0  0  0  0
   -3.1202   -3.6166   -2.6767 C   0  0  0  0  0  0  0  0  0  0  0  0
   -2.6924   -2.4757   -1.9759 C   0  0  0  0  0  0  0  0  0  0  0  0
   -2.1756   -1.3562   -2.6422 C   0  0  0  0  0  0  0  0  0  0  0  0
   -1.7322   -0.2207   -1.9432 C   0  0  0  0  0  0  0  0  0  0  0  0
   -1.2439    0.8817   -2.6540 C   0  0  0  0  0  0  0  0  0  0  0  0
   -0.8292    2.0529   -2.0118 C   0  0  0  0  0  0  0  0  0  0  0  0
   -0.3950    3.1529   -2.7744 C   0  0  0  0  0  0  0  0  0  0  0  0
   -0.0038    4.3593   -2.1757 C   0  0  0  0  0  0  0  0  0  0  0  0
    0.4145    5.4634   -2.9385 C   0  0  0  0  0  0  0  0  0  0  0  0
    0.7883    6.6581   -2.3212 C   0  0  0  0  0  0  0  0  0  0  0  0
    0.7561    6.7611   -0.9341 C   0  0  0  0  0  0  0  0  0  0  0  0
    0.3482    5.6699   -0.1652 C   0  0  0  0  0  0  0  0  0  0  0  0
   -0.0367    4.4634   -0.7748 C   0  0  0  0  0  0  0  0  0  0  0  0
   -0.4552    3.3548   -0.0179 C   0  0  0  0  0  0  0  0  0  0  0  0
   -0.8592    2.1258   -0.6046 C   0  0  0  0  0  0  0  0  0  0  0  0
   -0.1813    0.8385    2.4754 C   0  0  0  0  0  0  0  0  0  0  0  0
   -1.1474   -7.7520    2.0711 H   0  0  0  0  0  0  0  0  0  0  0  0
   -1.4035   -6.4052    4.1417 H   0  0  0  0  0  0  0  0  0  0  0  0
   -0.7367   -4.0312    4.1627 H   0  0  0  0  0  0  0  0  0  0  0  0
    0.1755   -2.0834    3.0020 H   0  0  0  0  0  0  0  0  0  0  0  0
    0.7114   -4.7483   -1.1245 H   0  0  0  0  0  0  0  0  0  0  0  0
   -0.2278   -6.7195    0.0299 H   0  0  0  0  0  0  0  0  0  0  0  0
    1.6600   -2.8694   -2.2625 H   0  0  0  0  0  0  0  0  0  0  0  0
    2.6751   -1.0693   -3.4602 H   0  0  0  0  0  0  0  0  0  0  0  0
    3.7183    0.7478   -4.7256 H   0  0  0  0  0  0  0  0  0  0  0  0
    4.7486    2.5984   -6.0041 H   0  0  0  0  0  0  0  0  0  0  0  0
    5.5260    4.9349   -6.1153 H   0  0  0  0  0  0  0  0  0  0  0  0
    5.3217    6.4134   -4.1335 H   0  0  0  0  0  0  0  0  0  0  0  0
    4.3399    5.5525   -2.0407 H   0  0  0  0  0  0  0  0  0  0  0  0
    3.3172    3.7047   -0.7649 H   0  0  0  0  0  0  0  0  0  0  0  0
    2.2905    1.8877    0.4841 H   0  0  0  0  0  0  0  0  0  0  0  0
    3.6734   -0.8705    1.8146 H   0  0  0  0  0  0  0  0  0  0  0  0
    5.4725   -0.8699    3.4516 H   0  0  0  0  0  0  0  0  0  0  0  0
    5.1301    0.1409    5.6950 H   0  0  0  0  0  0  0  0  0  0  0  0
    2.9526    1.1308    6.2667 H   0  0  0  0  0  0  0  0  0  0  0  0
    0.6785    1.6289    5.7100 H   0  0  0  0  0  0  0  0  0  0  0  0
   -1.5201    2.1280    5.3681 H   0  0  0  0  0  0  0  0  0  0  0  0
   -3.8266    2.7433    5.1874 H   0  0  0  0  0  0  0  0  0  0  0  0
   -5.8548    3.0718    3.8374 H   0  0  0  0  0  0  0  0  0  0  0  0
   -5.8339    2.5020    1.4204 H   0  0  0  0  0  0  0  0  0  0  0  0
   -3.8243    1.6029    0.3869 H   0  0  0  0  0  0  0  0  0  0  0  0
   -2.4038   -1.3174    1.2072 H   0  0  0  0  0  0  0  0  0  0  0  0
   -3.3383   -3.5617    1.1875 H   0  0  0  0  0  0  0  0  0  0  0  0
   -4.2444   -5.8552    1.1688 H   0  0  0  0  0  0  0  0  0  0  0  0
   -4.9532   -7.8564   -0.0795 H   0  0  0  0  0  0  0  0  0  0  0  0
   -4.8261   -7.8913   -2.5600 H   0  0  0  0  0  0  0  0  0  0  0  0
   -3.9790   -5.9270   -3.7833 H   0  0  0  0  0  0  0  0  0  0  0  0
   -3.0553   -3.6307   -3.7626 H   0  0  0  0  0  0  0  0  0  0  0  0
   -2.1150   -1.3695   -3.7291 H   0  0  0  0  0  0  0  0  0  0  0  0
   -1.2036    0.8352   -3.7412 H   0  0  0  0  0  0  0  0  0  0  0  0
   -0.3646    3.0705   -3.8595 H   0  0  0  0  0  0  0  0  0  0  0  0
    0.4515    5.3964   -4.0236 H   0  0  0  0  0  0  0  0  0  0  0  0
    1.0999    7.5071   -2.9244 H   0  0  0  0  0  0  0  0  0  0  0  0
    1.0439    7.6903   -0.4496 H   0  0  0  0  0  0  0  0  0  0  0  0
    0.3264    5.7667    0.9179 H   0  0  0  0  0  0  0  0  0  0  0  0
   -0.4698    3.4603    1.0653 H   0  0  0  0  0  0  0  0  0  0  0  0
  1  2  4  0
  2  3  4  0
  3  4  4  0
  4  5  4  0
  5  6  4  0
  6  7  4  0
  7  8  4  0
  8  9  4  0
  9 10  4  0
  7 11  4  0
 11 12  4  0
 12 13  4  0
 13 14  4  0
 14 15  4  0
 15 16  4  0
 16 17  4  0
 17 18  4  0
 18 19  4  0
 19 20  4  0
 20 21  4  0
 21 22  4  0
 22 23  4  0
 23 24  4  0
 24 25  4  0
 25 26  4  0
 26 27  1  0
 27 28  4  0
 28 29  4  0
 29 30  4  0
 30 31  4  0
 31 32  4  0
 32 33  4  0
 33 34  4  0
 34 35  4  0
 35 36  4  0
 36 37  4  0
 37 38  4  0
 38 39  4  0
 39 40  4  0
 40 41  4  0
 41 42  4  0
 42 43  4  0
 43 44  1  0
 44 45  4  0
 45 46  4  0
 46 47  4  0
 47 48  4  0
 48 49  4  0
 49 50  4  0
 50 51  4  0
 51 52  4  0
 52 53  4  0
 53 54  4  0
 54 55  4  0
 55 56  4  0
 56 57  4  0
 57 58  4  0
 58 59  4  0
 59 60  4  0
 60 61  4  0
 61 62  4  0
 62 63  4  0
 63 64  4  0
 64 65  4  0
 65 66  4  0
 66 67  4  0
 67 68  4  0
 68 69  4  0
 43 70  4  0
 10  1  4  0
 25 12  4  0
 70 27  4  0
  9  4  4  0
 23 14  4  0
 33 28  4  0
 70 35  4  0
 26  6  4  0
 42 37  4  0
 69 44  4  0
 21 16  4  0
 58 45  4  0
 69 60  4  0
 56 47  4  0
 67 62  4  0
 54 49  4  0
  1 71  1  0
  2 72  1  0
  3 73  1  0
  5 74  1  0
  8 75  1  0
 10 76  1  0
 11 77  1  0
 13 78  1  0
 15 79  1  0
 17 80  1  0
 18 81  1  0
 19 82  1  0
 20 83  1  0
 22 84  1  0
 24 85  1  0
 29 86  1  0
 30 87  1  0
 31 88  1  0
 32 89  1  0
 34 90  1  0
 36 91  1  0
 38 92  1  0
 39 93  1  0
 40 94  1  0
 41 95  1  0
 46 96  1  0
 48 97  1  0
 50 98  1  0
 51 99  1  0
 52100  1  0
 53101  1  0
 55102  1  0
 57103  1  0
 59104  1  0
 61105  1  0
 63106  1  0
 64107  1  0
 65108  1  0
 66109  1  0
 68110  1  0
M  END
