
     RDKit          3D

110125  0  0  0  0  0  0  0  0999 V2000
   -3.9496    7.9642    3.1228 C   0  0  0  0  0  0  0  0  0  0  0  0
   -4.4813    7.0883    4.0641 C   0  0  0  0  0  0  0  0  0  0  0  0
   -4.3701    5.7102    3.8744 C   0  0  0  0  0  0  0  0  0  0  0  0
   -3.7251    5.1907    2.7399 C   0  0  0  0  0  0  0  0  0  0  0  0
   -3.6052    3.8064    2.5352 C   0  0  0  0  0  0  0  0  0  0  0  0
   -2.9604    3.2868    1.4001 C   0  0  0  0  0  0  0  0  0  0  0  0
   -2.8402    1.9022    1.1959 C   0  0  0  0  0  0  0  0  0  0  0  0
   -2.1962    1.3820    0.0613 C   0  0  0  0  0  0  0  0  0  0  0  0
   -2.0722   -0.0021   -0.1383 C   0  0  0  0  0  0  0  0  0  0  0  0
   -1.4188   -0.5227   -1.2673 C   0  0  0  0  0  0  0  0  0  0  0  0
   -1.2675   -1.9068   -1.4505 C   0  0  0  0  0  0  0  0  0  0  0  0
   -0.5951   -2.4571   -2.5680 C   0  0  0  0  0  0  0  0  0  0  0  0
   -0.1037   -1.5586   -3.5433 C   0  0  0  0  0  0  0  0  0  0  0  0
   -0.2481   -0.1728   -3.3562 C   0  0  0  0  0  0  0  0  0  0  0  0
   -0.8903    0.3571   -2.2258 C   0  0  0  0  0  0  0  0  0  0  0  0
   -1.0141    1.7430   -2.0269 C   0  0  0  0  0  0  0  0  0  0  0  0
   -1.6587    2.2664   -0.8931 C   0  0  0  0  0  0  0  0  0  0  0  0
   -1.7775    3.6515   -0.6884 C   0  0  0  0  0  0  0  0  0  0  0  0
   -2.4221    4.1728    0.4463 C   0  0  0  0  0  0  0  0  0  0  0  0
   -2.5413    5.5580    0.6506 C   0  0  0  0  0  0  0  0  0  0  0  0
   -3.1859    6.0787    1.7850 C   0  0  0  0  0  0  0  0  0  0  0  0
   -3.3059    7.4632    1.9902 C   0  0  0  0  0  0  0  0  0  0  0  0
    0.5286   -2.0553   -4.6932 C   0  0  0  0  0  0  0  0  0  0  0  0
    0.6764   -3.4246   -4.8957 C   0  0  0  0  0  0  0  0  0  0  0  0
    0.2167   -4.3188   -3.9349 C   0  0  0  0  0  0  0  0  0  0  0  0
   -0.3930   -3.8590   -2.7525 C   0  0  0  0  0  0  0  0  0  0  0  0
   -0.8990   -4.8547   -1.7693 C   0  0  0  0  0  0  0  0  0  0  0  0
   -2.2492   -5.3299   -1.9815 C   0  0  0  0  0  0  0  0  0  0  0  0
   -3.0614   -4.9915   -3.0991 C   0  0  0  0  0  0  0  0  0  0  0  0
   -4.3629   -5.4750   -3.2571 C   0  0  0  0  0  0  0  0  0  0  0  0
   -4.9039   -6.3138   -2.2975 C   0  0  0  0  0  0  0  0  0  0  0  0
   -4.1420   -6.6588   -1.1853 C   0  0  0  0  0  0  0  0  0  0  0  0
   -2.8311   -6.1730   -1.0219 C   0  0  0  0  0  0  0  0  0  0  0  0
   -2.1036   -6.5119    0.1157 C   0  0  0  0  0  0  0  0  0  0  0  0
   -0.7931   -6.0693    0.3361 C   0  0  0  0  0  0  0  0  0  0  0  0
   -0.1984   -6.4722    1.5380 C   0  0  0  0  0  0  0  0  0  0  0  0
    1.1035   -6.1240    1.8869 C   0  0  0  0  0  0  0  0  0  0  0  0
    1.6344   -6.5497    3.1189 C   0  0  0  0  0  0  0  0  0  0  0  0
    2.9386   -6.2354    3.4880 C   0  0  0  0  0  0  0  0  0  0  0  0
    3.7290   -5.4977    2.6233 C   0  0  0  0  0  0  0  0  0  0  0  0
    3.2066   -5.0760    1.3979 C   0  0  0  0  0  0  0  0  0  0  0  0
    1.8740   -5.3650    0.9920 C   0  0  0  0  0  0  0  0  0  0  0  0
    1.2811   -4.9417   -0.2591 C   0  0  0  0  0  0  0  0  0  0  0  0
    2.1921   -4.2537   -1.2154 C   0  0  0  0  0  0  0  0  0  0  0  0
    2.8609   -5.0540   -2.1649 C   0  0  0  0  0  0  0  0  0  0  0  0
    3.7762   -4.5021   -3.0539 C   0  0  0  0  0  0  0  0  0  0  0  0
    4.0441   -3.1381   -3.0067 C   0  0  0  0  0  0  0  0  0  0  0  0
    3.4188   -2.3112   -2.0614 C   0  0  0  0  0  0  0  0  0  0  0  0
    3.7135   -0.9383   -2.0269 C   0  0  0  0  0  0  0  0  0  0  0  0
    3.1232   -0.0811   -1.0865 C   0  0  0  0  0  0  0  0  0  0  0  0
    3.4098    1.2943   -1.0641 C   0  0  0  0  0  0  0  0  0  0  0  0
    2.8143    2.1518   -0.1243 C   0  0  0  0  0  0  0  0  0  0  0  0
    3.0969    3.5281   -0.1037 C   0  0  0  0  0  0  0  0  0  0  0  0
    2.4997    4.3852    0.8359 C   0  0  0  0  0  0  0  0  0  0  0  0
    2.7834    5.7613    0.8570 C   0  0  0  0  0  0  0  0  0  0  0  0
    2.1868    6.6180    1.7969 C   0  0  0  0  0  0  0  0  0  0  0  0
    2.4707    7.9935    1.8193 C   0  0  0  0  0  0  0  0  0  0  0  0
    1.8700    8.8314    2.7601 C   0  0  0  0  0  0  0  0  0  0  0  0
    0.9784    8.3055    3.6898 C   0  0  0  0  0  0  0  0  0  0  0  0
    0.6859    6.9409    3.6802 C   0  0  0  0  0  0  0  0  0  0  0  0
    1.2824    6.0847    2.7397 C   0  0  0  0  0  0  0  0  0  0  0  0
    0.9990    4.7091    2.7171 C   0  0  0  0  0  0  0  0  0  0  0  0
    1.5971    3.8529    1.7770 C   0  0  0  0  0  0  0  0  0  0  0  0
    1.3150    2.4767    1.7558 C   0  0  0  0  0  0  0  0  0  0  0  0
    1.9140    1.6197    0.8176 C   0  0  0  0  0  0  0  0  0  0  0  0
    1.6330    0.2436    0.7967 C   0  0  0  0  0  0  0  0  0  0  0  0
    2.2246   -0.6124   -0.1473 C   0  0  0  0  0  0  0  0  0  0  0  0
    1.9290   -1.9864   -0.1825 C   0  0  0  0  0  0  0  0  0  0  0  0
    2.4956   -2.8610   -1.1396 C   0  0  0  0  0  0  0  0  0  0  0  0
   -0.1083   -5.2572   -0.6029 C   0  0  0  0  0  0  0  0  0  0  0  0
   -4.0352    9.0378    3.2685 H   0  0  0  0  0  0  0  0  0  0  0  0
   -4.9831    7.4764    4.9467 H   0  0  0  0  0  0  0  0  0  0  0  0
   -4.7921    5.0412    4.6212 H   0  0  0  0  0  0  0  0  0  0  0  0
   -4.0211    3.1218    3.2722 H   0  0  0  0  0  0  0  0  0  0  0  0
   -3.2534    1.2155    1.9325 H   0  0  0  0  0  0  0  0  0  0  0  0
   -2.4834   -0.6877    0.6003 H   0  0  0  0  0  0  0  0  0  0  0  0
   -1.6706   -2.5726   -0.6898 H   0  0  0  0  0  0  0  0  0  0  0  0
    0.1540    0.5092   -4.1027 H   0  0  0  0  0  0  0  0  0  0  0  0
   -0.5936    2.4249   -2.7631 H   0  0  0  0  0  0  0  0  0  0  0  0
   -1.3589    4.3349   -1.4249 H   0  0  0  0  0  0  0  0  0  0  0  0
   -2.1255    6.2433   -0.0858 H   0  0  0  0  0  0  0  0  0  0  0  0
   -2.8970    8.1642    1.2660 H   0  0  0  0  0  0  0  0  0  0  0  0
    0.9115   -1.3717   -5.4474 H   0  0  0  0  0  0  0  0  0  0  0  0
    1.1624   -3.7940   -5.7941 H   0  0  0  0  0  0  0  0  0  0  0  0
    0.3426   -5.3869   -4.0991 H   0  0  0  0  0  0  0  0  0  0  0  0
   -2.6824   -4.3305   -3.8768 H   0  0  0  0  0  0  0  0  0  0  0  0
   -4.9454   -5.1895   -4.1289 H   0  0  0  0  0  0  0  0  0  0  0  0
   -5.9149   -6.6948   -2.4086 H   0  0  0  0  0  0  0  0  0  0  0  0
   -4.5846   -7.3130   -0.4366 H   0  0  0  0  0  0  0  0  0  0  0  0
   -2.5816   -7.1488    0.8608 H   0  0  0  0  0  0  0  0  0  0  0  0
   -0.7724   -7.0819    2.2367 H   0  0  0  0  0  0  0  0  0  0  0  0
    1.0285   -7.1371    3.8057 H   0  0  0  0  0  0  0  0  0  0  0  0
    3.3334   -6.5688    4.4432 H   0  0  0  0  0  0  0  0  0  0  0  0
    4.7509   -5.2446    2.8925 H   0  0  0  0  0  0  0  0  0  0  0  0
    3.8678   -4.4992    0.7535 H   0  0  0  0  0  0  0  0  0  0  0  0
    2.6613   -6.1233   -2.2065 H   0  0  0  0  0  0  0  0  0  0  0  0
    4.2753   -5.1326   -3.7841 H   0  0  0  0  0  0  0  0  0  0  0  0
    4.7561   -2.7217   -3.7159 H   0  0  0  0  0  0  0  0  0  0  0  0
    4.4154   -0.5270   -2.7496 H   0  0  0  0  0  0  0  0  0  0  0  0
    4.1068    1.7039   -1.7924 H   0  0  0  0  0  0  0  0  0  0  0  0
    3.7938    3.9384   -0.8319 H   0  0  0  0  0  0  0  0  0  0  0  0
    3.4808    6.1727    0.1296 H   0  0  0  0  0  0  0  0  0  0  0  0
    3.1648    8.4235    1.1008 H   0  0  0  0  0  0  0  0  0  0  0  0
    2.0991    9.8938    2.7658 H   0  0  0  0  0  0  0  0  0  0  0  0
    0.5095    8.9562    4.4233 H   0  0  0  0  0  0  0  0  0  0  0  0
   -0.0137    6.5487    4.4149 H   0  0  0  0  0  0  0  0  0  0  0  0
    0.3014    4.2978    3.4444 H   0  0  0  0  0  0  0  0  0  0  0  0
    0.6151    2.0647    2.4806 H   0  0  0  0  0  0  0  0  0  0  0  0
    0.9302   -0.1676    1.5189 H   0  0  0  0  0  0  0  0  0  0  0  0
    1.2199   -2.3804    0.5434 H   0  0  0  0  0  0  0  0  0  0  0  0
  1  2  4  0
  2  3  4  0
  3  4  4  0
  4  5  4  0
  5  6  4  0
  6  7  4  0
  7  8  4  0
  8  9  4  0
  9 10  4  0
 10 11  4  0
 11 12  4  0
 12 13  4  0
 13 14  4  0
 14 15  4  0
 15 16  4  0
 16 17  4  0
 17 18  4  0
 18 19  4  0
 19 20  4  0
 20 21  4  0
 21 22  4  0
 13 23  4  0
 23 24  4  0
 24 25  4  0
 25 26  4  0
 26 27  1  0
 27 28  4  0
 28 29  4  0
 29 30  4  0
 30 31  4  0
 31 32  4  0
 32 33  4  0
 33 34  4  0
 34 35  4  0
 35 36  4  0
 36 37  4  0
 37 38  4  0
 38 39  4  0
 39 40  4  0
 40 41  4  0
 41 42  4  0
 42 43  4  0
 43 44  1  0
 44 45  4  0
 45 46  4  0
 46 47  4  0
 47 48  4  0
 48 49  4  0
 49 50  4  0
 50 51  4  0
 51 52  4  0
 52 53  4  0
 53 54  4  0
 54 55  4  0
 55 56  4  0
 56 57  4  0
 57 58  4  0
 58 59  4  0
 59 60  4  0
 60 61  4  0
 61 62  4  0
 62 63  4  0
 63 64  4  0
 64 65  4  0
 65 66  4  0
 66 67  4  0
 67 68  4  0
 68 69  4  0
 43 70  4  0
 22  1  4  0
 70 27  4  0
 21  4  4  0
 33 28  4  0
 70 35  4  0
 19  6  4  0
 42 37  4  0
 69 44  4  0
 17  8  4  0
 69 48  4  0
 15 10  4  0
 67 50  4  0
 26 12  4  0
 65 52  4  0
 63 54  4  0
 61 56  4  0
  1 71  1  0
  2 72  1  0
  3 73  1  0
  5 74  1  0
  7 75  1  0
  9 76  1  0
 11 77  1  0
 14 78  1  0
 16 79  1  0
 18 80  1  0
 20 81  1  0
 22 82  1  0
 23 83  1  0
 24 84  1  0
 25 85  1  0
 29 86  1  0
 30 87  1  0
 31 88  1  0
 32 89  1  0
 34 90  1  0
 36 91  1  0
 38 92  1  0
 39 93  1  0
 40 94  1  0
 41 95  1  0
 45 96  1  0
 46 97  1  0
 47 98  1  0
 49 99  1  0
 51100  1  0
 53101  1  0
 55102  1  0
 57103  1  0
 58104  1  0
 59105  1  0
 60106  1  0
 62107  1  0
 64108  1  0
 66109  1  0
 68110  1  0
M  END
