
     RDKit          3D

110125  0  0  0  0  0  0  0  0999 V2000
    2.6604    8.7333   -2.1378 C   0  0  0  0  0  0  0  0  0  0  0  0
    2.6062    7.9444   -0.9877 C   0  0  0  0  0  0  0  0  0  0  0  0
    2.4714    6.5491   -1.0787 C   0  0  0  0  0  0  0  0  0  0  0  0
    2.4156    5.7413    0.0693 C   0  0  0  0  0  0  0  0  0  0  0  0
    2.2810    4.3454   -0.0224 C   0  0  0  0  0  0  0  0  0  0  0  0
    2.2254    3.5369    1.1255 C   0  0  0  0  0  0  0  0  0  0  0  0
    2.0910    2.1409    1.0343 C   0  0  0  0  0  0  0  0  0  0  0  0
    2.0360    1.3311    2.1813 C   0  0  0  0  0  0  0  0  0  0  0  0
    1.8996   -0.0645    2.0885 C   0  0  0  0  0  0  0  0  0  0  0  0
    1.8491   -0.8770    3.2318 C   0  0  0  0  0  0  0  0  0  0  0  0
    1.7049   -2.2718    3.1406 C   0  0  0  0  0  0  0  0  0  0  0  0
    1.6863   -3.0553    4.3042 C   0  0  0  0  0  0  0  0  0  0  0  0
    1.5624   -4.4395    4.2344 C   0  0  0  0  0  0  0  0  0  0  0  0
    1.4287   -5.0586    2.9964 C   0  0  0  0  0  0  0  0  0  0  0  0
    1.4072   -4.3044    1.8067 C   0  0  0  0  0  0  0  0  0  0  0  0
    1.3196   -5.0325    0.5117 C   0  0  0  0  0  0  0  0  0  0  0  0
    2.5828   -5.4186   -0.0827 C   0  0  0  0  0  0  0  0  0  0  0  0
    3.8598   -5.1634    0.4901 C   0  0  0  0  0  0  0  0  0  0  0  0
    5.0526   -5.5524   -0.1247 C   0  0  0  0  0  0  0  0  0  0  0  0
    5.0132   -6.2151   -1.3396 C   0  0  0  0  0  0  0  0  0  0  0  0
    3.7822   -6.4810   -1.9313 C   0  0  0  0  0  0  0  0  0  0  0  0
    2.5784   -6.0880   -1.3161 C   0  0  0  0  0  0  0  0  0  0  0  0
    1.3625   -6.3590   -1.9372 C   0  0  0  0  0  0  0  0  0  0  0  0
    0.1295   -5.9967   -1.3800 C   0  0  0  0  0  0  0  0  0  0  0  0
   -1.0053   -6.3344   -2.1281 C   0  0  0  0  0  0  0  0  0  0  0  0
   -2.2997   -6.0463   -1.7050 C   0  0  0  0  0  0  0  0  0  0  0  0
   -3.3965   -6.4124   -2.5085 C   0  0  0  0  0  0  0  0  0  0  0  0
   -4.7023   -6.1410   -2.1116 C   0  0  0  0  0  0  0  0  0  0  0  0
   -4.9242   -5.5008   -0.9043 C   0  0  0  0  0  0  0  0  0  0  0  0
   -3.8381   -5.1372   -0.1035 C   0  0  0  0  0  0  0  0  0  0  0  0
   -2.4896   -5.3955   -0.4762 C   0  0  0  0  0  0  0  0  0  0  0  0
   -1.3307   -5.0365    0.3150 C   0  0  0  0  0  0  0  0  0  0  0  0
   -1.6125   -4.3820    1.6217 C   0  0  0  0  0  0  0  0  0  0  0  0
   -1.8180   -2.9750    1.7485 C   0  0  0  0  0  0  0  0  0  0  0  0
   -1.7432   -2.0721    0.6614 C   0  0  0  0  0  0  0  0  0  0  0  0
   -1.9252   -0.6870    0.8171 C   0  0  0  0  0  0  0  0  0  0  0  0
   -1.8331    0.1935   -0.2739 C   0  0  0  0  0  0  0  0  0  0  0  0
   -1.9960    1.5796   -0.1142 C   0  0  0  0  0  0  0  0  0  0  0  0
   -1.8972    2.4608   -1.2041 C   0  0  0  0  0  0  0  0  0  0  0  0
   -2.0587    3.8474   -1.0437 C   0  0  0  0  0  0  0  0  0  0  0  0
   -1.9594    4.7281   -2.1343 C   0  0  0  0  0  0  0  0  0  0  0  0
   -2.1204    6.1144   -1.9739 C   0  0  0  0  0  0  0  0  0  0  0  0
   -2.0210    6.9956   -3.0635 C   0  0  0  0  0  0  0  0  0  0  0  0
   -2.1835    8.3706   -2.8872 C   0  0  0  0  0  0  0  0  0  0  0  0
   -2.4472    8.8821   -1.6205 C   0  0  0  0  0  0  0  0  0  0  0  0
   -2.5488    8.0194   -0.5280 C   0  0  0  0  0  0  0  0  0  0  0  0
   -2.3877    6.6332   -0.6892 C   0  0  0  0  0  0  0  0  0  0  0  0
   -2.4867    5.7520    0.4003 C   0  0  0  0  0  0  0  0  0  0  0  0
   -2.3253    4.3654    0.2386 C   0  0  0  0  0  0  0  0  0  0  0  0
   -2.4234    3.4837    1.3284 C   0  0  0  0  0  0  0  0  0  0  0  0
   -2.2618    2.0972    1.1675 C   0  0  0  0  0  0  0  0  0  0  0  0
   -2.3596    1.2153    2.2568 C   0  0  0  0  0  0  0  0  0  0  0  0
   -2.1948   -0.1709    2.0950 C   0  0  0  0  0  0  0  0  0  0  0  0
   -2.2953   -1.0546    3.1802 C   0  0  0  0  0  0  0  0  0  0  0  0
   -2.1224   -2.4400    3.0228 C   0  0  0  0  0  0  0  0  0  0  0  0
   -2.2575   -3.2948    4.1271 C   0  0  0  0  0  0  0  0  0  0  0  0
   -2.1061   -4.6711    3.9914 C   0  0  0  0  0  0  0  0  0  0  0  0
   -1.7893   -5.2092    2.7492 C   0  0  0  0  0  0  0  0  0  0  0  0
    0.0355   -5.3282   -0.1321 C   0  0  0  0  0  0  0  0  0  0  0  0
    1.5851   -2.8891    1.8730 C   0  0  0  0  0  0  0  0  0  0  0  0
    1.6599   -2.0569    0.7307 C   0  0  0  0  0  0  0  0  0  0  0  0
    1.8142   -0.6631    0.8211 C   0  0  0  0  0  0  0  0  0  0  0  0
    1.8747    0.1444   -0.3269 C   0  0  0  0  0  0  0  0  0  0  0  0
    2.0103    1.5394   -0.2358 C   0  0  0  0  0  0  0  0  0  0  0  0
    2.0648    2.3474   -1.3837 C   0  0  0  0  0  0  0  0  0  0  0  0
    2.1997    3.7430   -1.2930 C   0  0  0  0  0  0  0  0  0  0  0  0
    2.2552    4.5501   -2.4419 C   0  0  0  0  0  0  0  0  0  0  0  0
    2.3902    5.9454   -2.3514 C   0  0  0  0  0  0  0  0  0  0  0  0
    2.4463    6.7528   -3.4997 C   0  0  0  0  0  0  0  0  0  0  0  0
    2.5805    8.1379   -3.3928 C   0  0  0  0  0  0  0  0  0  0  0  0
    2.7649    9.8117   -2.0523 H   0  0  0  0  0  0  0  0  0  0  0  0
    2.6701    8.4284   -0.0157 H   0  0  0  0  0  0  0  0  0  0  0  0
    2.4783    6.2073    1.0509 H   0  0  0  0  0  0  0  0  0  0  0  0
    2.2880    4.0018    2.1077 H   0  0  0  0  0  0  0  0  0  0  0  0
    2.0983    1.7943    3.1638 H   0  0  0  0  0  0  0  0  0  0  0  0
    1.9242   -0.4132    4.2134 H   0  0  0  0  0  0  0  0  0  0  0  0
    1.7774   -2.5884    5.2822 H   0  0  0  0  0  0  0  0  0  0  0  0
    1.5609   -5.0341    5.1434 H   0  0  0  0  0  0  0  0  0  0  0  0
    1.3334   -6.1417    2.9519 H   0  0  0  0  0  0  0  0  0  0  0  0
    3.9435   -4.6419    1.4422 H   0  0  0  0  0  0  0  0  0  0  0  0
    6.0043   -5.3322    0.3512 H   0  0  0  0  0  0  0  0  0  0  0  0
    5.9337   -6.5222   -1.8273 H   0  0  0  0  0  0  0  0  0  0  0  0
    3.7683   -7.0009   -2.8873 H   0  0  0  0  0  0  0  0  0  0  0  0
    1.3808   -6.8756   -2.8975 H   0  0  0  0  0  0  0  0  0  0  0  0
   -0.8793   -6.8448   -3.0836 H   0  0  0  0  0  0  0  0  0  0  0  0
   -3.2382   -6.9171   -3.4596 H   0  0  0  0  0  0  0  0  0  0  0  0
   -5.5382   -6.4275   -2.7430 H   0  0  0  0  0  0  0  0  0  0  0  0
   -5.9362   -5.2779   -0.5776 H   0  0  0  0  0  0  0  0  0  0  0  0
   -4.0648   -4.6329    0.8345 H   0  0  0  0  0  0  0  0  0  0  0  0
   -1.5209   -2.4549   -0.3330 H   0  0  0  0  0  0  0  0  0  0  0  0
   -1.6209   -0.2083   -1.2628 H   0  0  0  0  0  0  0  0  0  0  0  0
   -1.6891    2.0598   -2.1943 H   0  0  0  0  0  0  0  0  0  0  0  0
   -1.7531    4.3275   -3.1251 H   0  0  0  0  0  0  0  0  0  0  0  0
   -1.8153    6.6150   -4.0615 H   0  0  0  0  0  0  0  0  0  0  0  0
   -2.1038    9.0407   -3.7393 H   0  0  0  0  0  0  0  0  0  0  0  0
   -2.5740    9.9524   -1.4809 H   0  0  0  0  0  0  0  0  0  0  0  0
   -2.7554    8.4383    0.4543 H   0  0  0  0  0  0  0  0  0  0  0  0
   -2.6926    6.1528    1.3911 H   0  0  0  0  0  0  0  0  0  0  0  0
   -2.6281    3.8833    2.3199 H   0  0  0  0  0  0  0  0  0  0  0  0
   -2.5654    1.6143    3.2481 H   0  0  0  0  0  0  0  0  0  0  0  0
   -2.5131   -0.6546    4.1685 H   0  0  0  0  0  0  0  0  0  0  0  0
   -2.4914   -2.8901    5.1091 H   0  0  0  0  0  0  0  0  0  0  0  0
   -2.2252   -5.3218    4.8530 H   0  0  0  0  0  0  0  0  0  0  0  0
   -1.6724   -6.2869    2.6521 H   0  0  0  0  0  0  0  0  0  0  0  0
    1.5820   -2.5037   -0.2589 H   0  0  0  0  0  0  0  0  0  0  0  0
    1.8065   -0.3229   -1.3075 H   0  0  0  0  0  0  0  0  0  0  0  0
    1.9999    1.8807   -2.3648 H   0  0  0  0  0  0  0  0  0  0  0  0
    2.1928    4.0841   -3.4236 H   0  0  0  0  0  0  0  0  0  0  0  0
    2.3854    6.3061   -4.4896 H   0  0  0  0  0  0  0  0  0  0  0  0
    2.6226    8.7503   -4.2898 H   0  0  0  0  0  0  0  0  0  0  0  0
  1  2  4  0
  2  3  4  0
  3  4  4  0
  4  5  4  0
  5  6  4  0
  6  7  4  0
  7  8  4  0
  8  9  4  0
  9 10  4  0
 10 11  4  0
 11 12  4  0
 12 13  4  0
 13 14  4  0
 14 15  4  0
 15 16  1  0
 16 17  4  0
 17 18  4  0
 18 19  4  0
 19 20  4  0
 20 21  4  0
 21 22  4  0
 22 23  4  0
 23 24  4  0
 24 25  4  0
 25 26  4  0
 26 27  4  0
 27 28  4  0
 28 29  4  0
 29 30  4  0
 30 31  4  0
 31 32  4  0
 32 33  1  0
 33 34  4  0
 34 35  4  0
 35 36  4  0
 36 37  4  0
 37 38  4  0
 38 39  4  0
 39 40  4  0
 40 41  4  0
 41 42  4  0
 42 43  4  0
 43 44  4  0
 44 45  4  0
 45 46  4  0
 46 47  4  0
 47 48  4  0
 48 49  4  0
 49 50  4  0
 50 51  4  0
 51 52  4  0
 52 53  4  0
 53 54  4  0
 54 55  4  0
 55 56  4  0
 56 57  4  0
 57 58  4  0
 32 59  4  0
 15 60  4  0
 60 61  4  0
 61 62  4  0
 62 63  4  0
 63 64  4  0
 64 65  4  0
 65 66  4  0
 66 67  4  0
 67 68  4  0
 68 69  4  0
 69 70  4  0
 70  1  4  0
 68  3  4  0
 66  5  4  0
 64  7  4  0
 62  9  4  0
 60 11  4  0
 59 16  4  0
 22 17  4  0
 59 24  4  0
 31 26  4  0
 58 33  4  0
 55 34  4  0
 53 36  4  0
 51 38  4  0
 49 40  4  0
 47 42  4  0
  1 71  1  0
  2 72  1  0
  4 73  1  0
  6 74  1  0
  8 75  1  0
 10 76  1  0
 12 77  1  0
 13 78  1  0
 14 79  1  0
 18 80  1  0
 19 81  1  0
 20 82  1  0
 21 83  1  0
 23 84  1  0
 25 85  1  0
 27 86  1  0
 28 87  1  0
 29 88  1  0
 30 89  1  0
 35 90  1  0
 37 91  1  0
 39 92  1  0
 41 93  1  0
 43 94  1  0
 44 95  1  0
 45 96  1  0
 46 97  1  0
 48 98  1  0
 50 99  1  0
 52100  1  0
 54101  1  0
 56102  1  0
 57103  1  0
 58104  1  0
 61105  1  0
 63106  1  0
 65107  1  0
 67108  1  0
 69109  1  0
 70110  1  0
M  END
