
     RDKit          3D

 86 97  0  0  0  0  0  0  0  0999 V2000
   -2.3742   -3.2337    4.8165 C   0  0  0  0  0  0  0  0  0  0  0  0
   -2.3350   -1.8781    5.1261 C   0  0  0  0  0  0  0  0  0  0  0  0
   -2.1451   -0.9398    4.1110 C   0  0  0  0  0  0  0  0  0  0  0  0
   -2.0031   -1.3455    2.7727 C   0  0  0  0  0  0  0  0  0  0  0  0
   -1.8061   -0.4152    1.7383 C   0  0  0  0  0  0  0  0  0  0  0  0
   -1.6739   -0.7919    0.3754 C   0  0  0  0  0  0  0  0  0  0  0  0
   -1.7617   -2.1674    0.0806 C   0  0  0  0  0  0  0  0  0  0  0  0
   -1.9308   -3.1060    1.1158 C   0  0  0  0  0  0  0  0  0  0  0  0
   -2.0542   -2.7138    2.4575 C   0  0  0  0  0  0  0  0  0  0  0  0
   -2.2293   -3.6497    3.4914 C   0  0  0  0  0  0  0  0  0  0  0  0
   -1.6895   -2.5969   -1.2501 C   0  0  0  0  0  0  0  0  0  0  0  0
   -1.5745   -1.6950   -2.3153 C   0  0  0  0  0  0  0  0  0  0  0  0
   -1.5638   -2.1707   -3.6383 C   0  0  0  0  0  0  0  0  0  0  0  0
   -1.4839   -1.2940   -4.7179 C   0  0  0  0  0  0  0  0  0  0  0  0
   -1.4165    0.0716   -4.4871 C   0  0  0  0  0  0  0  0  0  0  0  0
   -1.4157    0.5551   -3.1769 C   0  0  0  0  0  0  0  0  0  0  0  0
   -1.4812   -0.3092   -2.0567 C   0  0  0  0  0  0  0  0  0  0  0  0
   -1.4748    0.1429   -0.6985 C   0  0  0  0  0  0  0  0  0  0  0  0
   -1.3818    1.6013   -0.3721 C   0  0  0  0  0  0  0  0  0  0  0  0
   -2.6351    2.3245   -0.3252 C   0  0  0  0  0  0  0  0  0  0  0  0
   -3.8925    1.7947   -0.7262 C   0  0  0  0  0  0  0  0  0  0  0  0
   -5.0767    2.5333   -0.6578 C   0  0  0  0  0  0  0  0  0  0  0  0
   -5.0481    3.8317   -0.1777 C   0  0  0  0  0  0  0  0  0  0  0  0
   -3.8371    4.3782    0.2371 C   0  0  0  0  0  0  0  0  0  0  0  0
   -2.6420    3.6371    0.1707 C   0  0  0  0  0  0  0  0  0  0  0  0
   -1.4518    4.1958    0.6307 C   0  0  0  0  0  0  0  0  0  0  0  0
   -0.2265    3.5181    0.5815 C   0  0  0  0  0  0  0  0  0  0  0  0
    0.8799    4.1968    1.1088 C   0  0  0  0  0  0  0  0  0  0  0  0
    2.1657    3.6613    1.1049 C   0  0  0  0  0  0  0  0  0  0  0  0
    3.2314    4.3923    1.6642 C   0  0  0  0  0  0  0  0  0  0  0  0
    4.5329    3.8996    1.6433 C   0  0  0  0  0  0  0  0  0  0  0  0
    4.7825    2.6706    1.0563 C   0  0  0  0  0  0  0  0  0  0  0  0
    3.7275    1.9425    0.4992 C   0  0  0  0  0  0  0  0  0  0  0  0
    2.3833    2.4075    0.5132 C   0  0  0  0  0  0  0  0  0  0  0  0
    1.2558    1.6947   -0.0516 C   0  0  0  0  0  0  0  0  0  0  0  0
    1.5868    0.4754   -0.8577 C   0  0  0  0  0  0  0  0  0  0  0  0
    1.8561    0.6307   -2.2621 C   0  0  0  0  0  0  0  0  0  0  0  0
    1.8073    1.8720   -2.9496 C   0  0  0  0  0  0  0  0  0  0  0  0
    2.0741    1.9790   -4.3167 C   0  0  0  0  0  0  0  0  0  0  0  0
    2.3991    0.8452   -5.0447 C   0  0  0  0  0  0  0  0  0  0  0  0
    2.4634   -0.3884   -4.4013 C   0  0  0  0  0  0  0  0  0  0  0  0
    2.2049   -0.5056   -3.0237 C   0  0  0  0  0  0  0  0  0  0  0  0
    2.3022   -1.7542   -2.4019 C   0  0  0  0  0  0  0  0  0  0  0  0
    2.0987   -1.9147   -1.0269 C   0  0  0  0  0  0  0  0  0  0  0  0
    2.2509   -3.1865   -0.4486 C   0  0  0  0  0  0  0  0  0  0  0  0
    2.0846   -3.3942    0.9264 C   0  0  0  0  0  0  0  0  0  0  0  0
    2.2286   -4.6688    1.5002 C   0  0  0  0  0  0  0  0  0  0  0  0
    2.0504   -4.8569    2.8706 C   0  0  0  0  0  0  0  0  0  0  0  0
    1.7303   -3.7733    3.6818 C   0  0  0  0  0  0  0  0  0  0  0  0
    1.5910   -2.5014    3.1243 C   0  0  0  0  0  0  0  0  0  0  0  0
    1.7639   -2.2974    1.7459 C   0  0  0  0  0  0  0  0  0  0  0  0
    1.6099   -1.0269    1.1620 C   0  0  0  0  0  0  0  0  0  0  0  0
    1.7543   -0.8022   -0.2297 C   0  0  0  0  0  0  0  0  0  0  0  0
   -0.1126    2.2180    0.0295 C   0  0  0  0  0  0  0  0  0  0  0  0
   -2.5125   -3.9691    5.6043 H   0  0  0  0  0  0  0  0  0  0  0  0
   -2.4458   -1.5501    6.1560 H   0  0  0  0  0  0  0  0  0  0  0  0
   -2.1086    0.1162    4.3690 H   0  0  0  0  0  0  0  0  0  0  0  0
   -1.7600    0.6381    2.0089 H   0  0  0  0  0  0  0  0  0  0  0  0
   -1.9727   -4.1660    0.8720 H   0  0  0  0  0  0  0  0  0  0  0  0
   -2.2486   -4.7136    3.2683 H   0  0  0  0  0  0  0  0  0  0  0  0
   -1.7495   -3.6628   -1.4635 H   0  0  0  0  0  0  0  0  0  0  0  0
   -1.6229   -3.2384   -3.8371 H   0  0  0  0  0  0  0  0  0  0  0  0
   -1.4746   -1.6774   -5.7337 H   0  0  0  0  0  0  0  0  0  0  0  0
   -1.3488    0.7664   -5.3194 H   0  0  0  0  0  0  0  0  0  0  0  0
   -1.3478    1.6316   -3.0356 H   0  0  0  0  0  0  0  0  0  0  0  0
   -3.9661    0.7778   -1.1078 H   0  0  0  0  0  0  0  0  0  0  0  0
   -6.0132    2.0859   -0.9797 H   0  0  0  0  0  0  0  0  0  0  0  0
   -5.9623    4.4154   -0.1187 H   0  0  0  0  0  0  0  0  0  0  0  0
   -3.8323    5.3954    0.6232 H   0  0  0  0  0  0  0  0  0  0  0  0
   -1.4842    5.2041    1.0449 H   0  0  0  0  0  0  0  0  0  0  0  0
    0.7371    5.1860    1.5449 H   0  0  0  0  0  0  0  0  0  0  0  0
    3.0523    5.3639    2.1203 H   0  0  0  0  0  0  0  0  0  0  0  0
    5.3450    4.4756    2.0778 H   0  0  0  0  0  0  0  0  0  0  0  0
    5.7921    2.2700    1.0256 H   0  0  0  0  0  0  0  0  0  0  0  0
    3.9744    0.9825    0.0491 H   0  0  0  0  0  0  0  0  0  0  0  0
    1.5535    2.7862   -2.4170 H   0  0  0  0  0  0  0  0  0  0  0  0
    2.0237    2.9485   -4.8043 H   0  0  0  0  0  0  0  0  0  0  0  0
    2.6042    0.9175   -6.1088 H   0  0  0  0  0  0  0  0  0  0  0  0
    2.7220   -1.2674   -4.9875 H   0  0  0  0  0  0  0  0  0  0  0  0
    2.5619   -2.6234   -3.0038 H   0  0  0  0  0  0  0  0  0  0  0  0
    2.5063   -4.0336   -1.0824 H   0  0  0  0  0  0  0  0  0  0  0  0
    2.4761   -5.5262    0.8793 H   0  0  0  0  0  0  0  0  0  0  0  0
    2.1542   -5.8481    3.3029 H   0  0  0  0  0  0  0  0  0  0  0  0
    1.5745   -3.9158    4.7475 H   0  0  0  0  0  0  0  0  0  0  0  0
    1.3236   -1.6686    3.7711 H   0  0  0  0  0  0  0  0  0  0  0  0
    1.3514   -0.1930    1.8124 H   0  0  0  0  0  0  0  0  0  0  0  0
  1  2  4  0
  2  3  4  0
  3  4  4  0
  4  5  4  0
  5  6  4  0
  6  7  4  0
  7  8  4  0
  8  9  4  0
  9 10  4  0
  7 11  4  0
 11 12  4  0
 12 13  4  0
 13 14  4  0
 14 15  4  0
 15 16  4  0
 16 17  4  0
 17 18  4  0
 18 19  1  0
 19 20  4  0
 20 21  4  0
 21 22  4  0
 22 23  4  0
 23 24  4  0
 24 25  4  0
 25 26  4  0
 26 27  4  0
 27 28  4  0
 28 29  4  0
 29 30  4  0
 30 31  4  0
 31 32  4  0
 32 33  4  0
 33 34  4  0
 34 35  4  0
 35 36  1  0
 36 37  4  0
 37 38  4  0
 38 39  4  0
 39 40  4  0
 40 41  4  0
 41 42  4  0
 42 43  4  0
 43 44  4  0
 44 45  4  0
 45 46  4  0
 46 47  4  0
 47 48  4  0
 48 49  4  0
 49 50  4  0
 50 51  4  0
 51 52  4  0
 52 53  4  0
 35 54  4  0
 10  1  4  0
 17 12  4  0
 54 19  4  0
  9  4  4  0
 25 20  4  0
 54 27  4  0
 18  6  4  0
 34 29  4  0
 53 36  4  0
 42 37  4  0
 53 44  4  0
 51 46  4  0
  1 55  1  0
  2 56  1  0
  3 57  1  0
  5 58  1  0
  8 59  1  0
 10 60  1  0
 11 61  1  0
 13 62  1  0
 14 63  1  0
 15 64  1  0
 16 65  1  0
 21 66  1  0
 22 67  1  0
 23 68  1  0
 24 69  1  0
 26 70  1  0
 28 71  1  0
 30 72  1  0
 31 73  1  0
 32 74  1  0
 33 75  1  0
 38 76  1  0
 39 77  1  0
 40 78  1  0
 41 79  1  0
 43 80  1  0
 45 81  1  0
 47 82  1  0
 48 83  1  0
 49 84  1  0
 50 85  1  0
 52 86  1  0
M  END
