
     RDKit          3D

 98111  0  0  0  0  0  0  0  0999 V2000
   -8.8457    4.1083    2.1329 C   0  0  0  0  0  0  0  0  0  0  0  0
   -9.6701    2.9992    1.9737 C   0  0  0  0  0  0  0  0  0  0  0  0
   -9.1458    1.8093    1.4654 C   0  0  0  0  0  0  0  0  0  0  0  0
   -7.7890    1.7126    1.1095 C   0  0  0  0  0  0  0  0  0  0  0  0
   -7.2398    0.5221    0.5938 C   0  0  0  0  0  0  0  0  0  0  0  0
   -5.8743    0.3909    0.2219 C   0  0  0  0  0  0  0  0  0  0  0  0
   -5.0679    1.5372    0.3987 C   0  0  0  0  0  0  0  0  0  0  0  0
   -5.6079    2.7294    0.9139 C   0  0  0  0  0  0  0  0  0  0  0  0
   -6.9581    2.8336    1.2713 C   0  0  0  0  0  0  0  0  0  0  0  0
   -7.4971    4.0266    1.7837 C   0  0  0  0  0  0  0  0  0  0  0  0
   -3.7158    1.4942    0.0585 C   0  0  0  0  0  0  0  0  0  0  0  0
   -3.1201    0.3372   -0.4668 C   0  0  0  0  0  0  0  0  0  0  0  0
   -1.6693    0.3973   -0.8030 C   0  0  0  0  0  0  0  0  0  0  0  0
   -1.2713    0.8536   -2.0988 C   0  0  0  0  0  0  0  0  0  0  0  0
   -2.1771    1.2514   -3.1159 C   0  0  0  0  0  0  0  0  0  0  0  0
   -1.7394    1.6933   -4.3662 C   0  0  0  0  0  0  0  0  0  0  0  0
   -0.3811    1.7502   -4.6385 C   0  0  0  0  0  0  0  0  0  0  0  0
    0.5326    1.3611   -3.6617 C   0  0  0  0  0  0  0  0  0  0  0  0
    0.1019    0.9127   -2.4001 C   0  0  0  0  0  0  0  0  0  0  0  0
    1.0401    0.5196   -1.4363 C   0  0  0  0  0  0  0  0  0  0  0  0
    0.6862    0.0565   -0.1481 C   0  0  0  0  0  0  0  0  0  0  0  0
    1.6660   -0.3488    0.8221 C   0  0  0  0  0  0  0  0  0  0  0  0
    3.1158   -0.3073    0.4778 C   0  0  0  0  0  0  0  0  0  0  0  0
    3.6869   -1.4696   -0.0634 C   0  0  0  0  0  0  0  0  0  0  0  0
    5.0333   -1.5322   -0.4211 C   0  0  0  0  0  0  0  0  0  0  0  0
    5.5445   -2.7276   -0.9574 C   0  0  0  0  0  0  0  0  0  0  0  0
    6.8875   -2.8516   -1.3349 C   0  0  0  0  0  0  0  0  0  0  0  0
    7.3978   -4.0471   -1.8700 C   0  0  0  0  0  0  0  0  0  0  0  0
    8.7397   -4.1476   -2.2394 C   0  0  0  0  0  0  0  0  0  0  0  0
    9.5859   -3.0555   -2.0785 C   0  0  0  0  0  0  0  0  0  0  0  0
    9.0899   -1.8633   -1.5479 C   0  0  0  0  0  0  0  0  0  0  0  0
    7.7402   -1.7474   -1.1711 C   0  0  0  0  0  0  0  0  0  0  0  0
    7.2195   -0.5535   -0.6335 C   0  0  0  0  0  0  0  0  0  0  0  0
    5.8614   -0.4021   -0.2424 C   0  0  0  0  0  0  0  0  0  0  0  0
    5.2968    0.8063    0.3103 C   0  0  0  0  0  0  0  0  0  0  0  0
    6.0538    1.9904    0.5191 C   0  0  0  0  0  0  0  0  0  0  0  0
    5.5110    3.1738    1.0517 C   0  0  0  0  0  0  0  0  0  0  0  0
    6.2898    4.3301    1.2395 C   0  0  0  0  0  0  0  0  0  0  0  0
    5.7281    5.4939    1.7672 C   0  0  0  0  0  0  0  0  0  0  0  0
    4.3815    5.5164    2.1146 C   0  0  0  0  0  0  0  0  0  0  0  0
    3.5987    4.3752    1.9348 C   0  0  0  0  0  0  0  0  0  0  0  0
    4.1544    3.1983    1.4033 C   0  0  0  0  0  0  0  0  0  0  0  0
    3.3870    2.0409    1.2113 C   0  0  0  0  0  0  0  0  0  0  0  0
    3.9216    0.8450    0.6702 C   0  0  0  0  0  0  0  0  0  0  0  0
    1.2668   -0.8135    2.1149 C   0  0  0  0  0  0  0  0  0  0  0  0
    2.1702   -1.2311    3.1258 C   0  0  0  0  0  0  0  0  0  0  0  0
    1.7307   -1.6843    4.3720 C   0  0  0  0  0  0  0  0  0  0  0  0
    0.3727   -1.7310    4.6473 C   0  0  0  0  0  0  0  0  0  0  0  0
   -0.5389   -1.3228    3.6765 C   0  0  0  0  0  0  0  0  0  0  0  0
   -0.1063   -0.8659    2.4183 C   0  0  0  0  0  0  0  0  0  0  0  0
   -1.0435   -0.4627    1.4580 C   0  0  0  0  0  0  0  0  0  0  0  0
   -0.6891    0.0001    0.1699 C   0  0  0  0  0  0  0  0  0  0  0  0
   -3.9042   -0.8299   -0.6582 C   0  0  0  0  0  0  0  0  0  0  0  0
   -3.3429   -2.0188   -1.1870 C   0  0  0  0  0  0  0  0  0  0  0  0
   -4.0866   -3.1903   -1.3791 C   0  0  0  0  0  0  0  0  0  0  0  0
   -3.5029   -4.3577   -1.9006 C   0  0  0  0  0  0  0  0  0  0  0  0
   -4.2613   -5.5145   -2.0818 C   0  0  0  0  0  0  0  0  0  0  0  0
   -5.6105   -5.5163   -1.7441 C   0  0  0  0  0  0  0  0  0  0  0  0
   -6.1997   -4.3614   -1.2262 C   0  0  0  0  0  0  0  0  0  0  0  0
   -5.4459   -3.1893   -1.0386 C   0  0  0  0  0  0  0  0  0  0  0  0
   -6.0157   -2.0128   -0.5182 C   0  0  0  0  0  0  0  0  0  0  0  0
   -5.2829   -0.8129   -0.3122 C   0  0  0  0  0  0  0  0  0  0  0  0
   -9.2505    5.0365    2.5275 H   0  0  0  0  0  0  0  0  0  0  0  0
  -10.7212    3.0582    2.2438 H   0  0  0  0  0  0  0  0  0  0  0  0
   -9.8072    0.9538    1.3475 H   0  0  0  0  0  0  0  0  0  0  0  0
   -7.9140   -0.3227    0.4830 H   0  0  0  0  0  0  0  0  0  0  0  0
   -4.9625    3.5979    1.0390 H   0  0  0  0  0  0  0  0  0  0  0  0
   -6.8661    4.9033    1.9126 H   0  0  0  0  0  0  0  0  0  0  0  0
   -3.0950    2.3800    0.1968 H   0  0  0  0  0  0  0  0  0  0  0  0
   -3.2514    1.2182   -2.9436 H   0  0  0  0  0  0  0  0  0  0  0  0
   -2.4629    1.9902   -5.1207 H   0  0  0  0  0  0  0  0  0  0  0  0
   -0.0303    2.0951   -5.6071 H   0  0  0  0  0  0  0  0  0  0  0  0
    1.5950    1.4108   -3.8940 H   0  0  0  0  0  0  0  0  0  0  0  0
    2.0937    0.5794   -1.7098 H   0  0  0  0  0  0  0  0  0  0  0  0
    3.0502   -2.3437   -0.2031 H   0  0  0  0  0  0  0  0  0  0  0  0
    4.8810   -3.5820   -1.0846 H   0  0  0  0  0  0  0  0  0  0  0  0
    6.7507   -4.9113   -2.0023 H   0  0  0  0  0  0  0  0  0  0  0  0
    9.1221   -5.0777   -2.6518 H   0  0  0  0  0  0  0  0  0  0  0  0
   10.6316   -3.1294   -2.3649 H   0  0  0  0  0  0  0  0  0  0  0  0
    9.7673   -1.0206   -1.4297 H   0  0  0  0  0  0  0  0  0  0  0  0
    7.9107    0.2773   -0.5216 H   0  0  0  0  0  0  0  0  0  0  0  0
    7.1089    2.0108    0.2599 H   0  0  0  0  0  0  0  0  0  0  0  0
    7.3445    4.3315    0.9734 H   0  0  0  0  0  0  0  0  0  0  0  0
    6.3422    6.3797    1.9061 H   0  0  0  0  0  0  0  0  0  0  0  0
    3.9385    6.4196    2.5255 H   0  0  0  0  0  0  0  0  0  0  0  0
    2.5471    4.4089    2.2119 H   0  0  0  0  0  0  0  0  0  0  0  0
    2.3352    2.0791    1.4929 H   0  0  0  0  0  0  0  0  0  0  0  0
    3.2443   -1.2064    2.9513 H   0  0  0  0  0  0  0  0  0  0  0  0
    2.4530   -1.9968    5.1213 H   0  0  0  0  0  0  0  0  0  0  0  0
    0.0209   -2.0819    5.6135 H   0  0  0  0  0  0  0  0  0  0  0  0
   -1.6013   -1.3653    3.9100 H   0  0  0  0  0  0  0  0  0  0  0  0
   -2.0970   -0.5202    1.7318 H   0  0  0  0  0  0  0  0  0  0  0  0
   -2.2882   -2.0400   -1.4596 H   0  0  0  0  0  0  0  0  0  0  0  0
   -2.4486   -4.3710   -2.1687 H   0  0  0  0  0  0  0  0  0  0  0  0
   -3.7981   -6.4107   -2.4856 H   0  0  0  0  0  0  0  0  0  0  0  0
   -6.2056   -6.4150   -1.8830 H   0  0  0  0  0  0  0  0  0  0  0  0
   -7.2562   -4.3825   -0.9682 H   0  0  0  0  0  0  0  0  0  0  0  0
   -7.0726   -2.0512   -0.2682 H   0  0  0  0  0  0  0  0  0  0  0  0
  1  2  4  0
  2  3  4  0
  3  4  4  0
  4  5  4  0
  5  6  4  0
  6  7  4  0
  7  8  4  0
  8  9  4  0
  9 10  4  0
  7 11  4  0
 11 12  4  0
 12 13  1  0
 13 14  4  0
 14 15  4  0
 15 16  4  0
 16 17  4  0
 17 18  4  0
 18 19  4  0
 19 20  4  0
 20 21  4  0
 21 22  4  0
 22 23  1  0
 23 24  4  0
 24 25  4  0
 25 26  4  0
 26 27  4  0
 27 28  4  0
 28 29  4  0
 29 30  4  0
 30 31  4  0
 31 32  4  0
 32 33  4  0
 33 34  4  0
 34 35  4  0
 35 36  4  0
 36 37  4  0
 37 38  4  0
 38 39  4  0
 39 40  4  0
 40 41  4  0
 41 42  4  0
 42 43  4  0
 43 44  4  0
 22 45  4  0
 45 46  4  0
 46 47  4  0
 47 48  4  0
 48 49  4  0
 49 50  4  0
 50 51  4  0
 51 52  4  0
 12 53  4  0
 53 54  4  0
 54 55  4  0
 55 56  4  0
 56 57  4  0
 57 58  4  0
 58 59  4  0
 59 60  4  0
 60 61  4  0
 61 62  4  0
 10  1  4  0
 52 13  4  0
 62 53  4  0
  9  4  4  0
 19 14  4  0
 52 21  4  0
 60 55  4  0
 62  6  4  0
 44 23  4  0
 50 45  4  0
 34 25  4  0
 44 35  4  0
 32 27  4  0
 42 37  4  0
  1 63  1  0
  2 64  1  0
  3 65  1  0
  5 66  1  0
  8 67  1  0
 10 68  1  0
 11 69  1  0
 15 70  1  0
 16 71  1  0
 17 72  1  0
 18 73  1  0
 20 74  1  0
 24 75  1  0
 26 76  1  0
 28 77  1  0
 29 78  1  0
 30 79  1  0
 31 80  1  0
 33 81  1  0
 36 82  1  0
 38 83  1  0
 39 84  1  0
 40 85  1  0
 41 86  1  0
 43 87  1  0
 46 88  1  0
 47 89  1  0
 48 90  1  0
 49 91  1  0
 51 92  1  0
 54 93  1  0
 56 94  1  0
 57 95  1  0
 58 96  1  0
 59 97  1  0
 61 98  1  0
M  END
