
     RDKit          3D

 98111  0  0  0  0  0  0  0  0999 V2000
   -9.8248   -3.9552   -3.5548 C   0  0  0  0  0  0  0  0  0  0  0  0
  -10.4824   -2.9201   -2.8985 C   0  0  0  0  0  0  0  0  0  0  0  0
   -9.7656   -2.0532   -2.0724 C   0  0  0  0  0  0  0  0  0  0  0  0
   -8.3806   -2.2106   -1.8919 C   0  0  0  0  0  0  0  0  0  0  0  0
   -7.6402   -1.3465   -1.0631 C   0  0  0  0  0  0  0  0  0  0  0  0
   -6.2419   -1.4795   -0.8609 C   0  0  0  0  0  0  0  0  0  0  0  0
   -5.6024   -2.5430   -1.5433 C   0  0  0  0  0  0  0  0  0  0  0  0
   -6.3367   -3.4092   -2.3718 C   0  0  0  0  0  0  0  0  0  0  0  0
   -7.7174   -3.2574   -2.5558 C   0  0  0  0  0  0  0  0  0  0  0  0
   -8.4501   -4.1235   -3.3849 C   0  0  0  0  0  0  0  0  0  0  0  0
   -4.2274   -2.7383   -1.3952 C   0  0  0  0  0  0  0  0  0  0  0  0
   -3.4715   -1.8990   -0.5828 C   0  0  0  0  0  0  0  0  0  0  0  0
   -4.0678   -0.8396    0.1051 C   0  0  0  0  0  0  0  0  0  0  0  0
   -3.2748   -0.0089    0.9165 C   0  0  0  0  0  0  0  0  0  0  0  0
   -3.8053    1.0801    1.6406 C   0  0  0  0  0  0  0  0  0  0  0  0
   -3.0192    1.9396    2.4642 C   0  0  0  0  0  0  0  0  0  0  0  0
   -1.5501    1.7641    2.6219 C   0  0  0  0  0  0  0  0  0  0  0  0
   -1.0529    0.9415    3.6807 C   0  0  0  0  0  0  0  0  0  0  0  0
   -1.8762    0.2513    4.6074 C   0  0  0  0  0  0  0  0  0  0  0  0
   -1.3422   -0.5474    5.6213 C   0  0  0  0  0  0  0  0  0  0  0  0
    0.0328   -0.6807    5.7398 C   0  0  0  0  0  0  0  0  0  0  0  0
    0.8670   -0.0150    4.8443 C   0  0  0  0  0  0  0  0  0  0  0  0
    0.3392    0.7921    3.8204 C   0  0  0  0  0  0  0  0  0  0  0  0
    1.1993    1.4502    2.9312 C   0  0  0  0  0  0  0  0  0  0  0  0
    0.7459    2.2686    1.8710 C   0  0  0  0  0  0  0  0  0  0  0  0
    1.6466    2.9286    0.9669 C   0  0  0  0  0  0  0  0  0  0  0  0
    3.1165    2.7864    1.1500 C   0  0  0  0  0  0  0  0  0  0  0  0
    3.8639    1.7363    0.5387 C   0  0  0  0  0  0  0  0  0  0  0  0
    3.2915    0.7536   -0.2969 C   0  0  0  0  0  0  0  0  0  0  0  0
    4.0468   -0.2774   -0.8835 C   0  0  0  0  0  0  0  0  0  0  0  0
    3.4104   -1.2150   -1.7004 C   0  0  0  0  0  0  0  0  0  0  0  0
    4.1276   -2.2495   -2.2929 C   0  0  0  0  0  0  0  0  0  0  0  0
    5.5027   -2.3777   -2.0848 C   0  0  0  0  0  0  0  0  0  0  0  0
    6.1968   -3.4366   -2.6954 C   0  0  0  0  0  0  0  0  0  0  0  0
    7.5757   -3.6119   -2.5190 C   0  0  0  0  0  0  0  0  0  0  0  0
    8.2684   -4.6713   -3.1295 C   0  0  0  0  0  0  0  0  0  0  0  0
    9.6420   -4.8282   -2.9409 C   0  0  0  0  0  0  0  0  0  0  0  0
   10.3387   -3.9291   -2.1403 C   0  0  0  0  0  0  0  0  0  0  0  0
    9.6617   -2.8729   -1.5285 C   0  0  0  0  0  0  0  0  0  0  0  0
    8.2784   -2.7023   -1.7097 C   0  0  0  0  0  0  0  0  0  0  0  0
    7.5782   -1.6435   -1.1010 C   0  0  0  0  0  0  0  0  0  0  0  0
    6.1826   -1.4450   -1.2642 C   0  0  0  0  0  0  0  0  0  0  0  0
    5.4373   -0.3713   -0.6527 C   0  0  0  0  0  0  0  0  0  0  0  0
    6.0042    0.6229    0.1836 C   0  0  0  0  0  0  0  0  0  0  0  0
    5.2517    1.6578    0.7725 C   0  0  0  0  0  0  0  0  0  0  0  0
    5.8758    2.6109    1.5933 C   0  0  0  0  0  0  0  0  0  0  0  0
    5.1465    3.6382    2.1851 C   0  0  0  0  0  0  0  0  0  0  0  0
    3.7771    3.7247    1.9655 C   0  0  0  0  0  0  0  0  0  0  0  0
    1.1487    3.7282   -0.1089 C   0  0  0  0  0  0  0  0  0  0  0  0
    1.9717    4.3964   -1.0516 C   0  0  0  0  0  0  0  0  0  0  0  0
    1.4374    5.1608   -2.0915 C   0  0  0  0  0  0  0  0  0  0  0  0
    0.0623    5.2817   -2.2198 C   0  0  0  0  0  0  0  0  0  0  0  0
   -0.7717    4.6383   -1.3082 C   0  0  0  0  0  0  0  0  0  0  0  0
   -0.2437    3.8649   -0.2587 C   0  0  0  0  0  0  0  0  0  0  0  0
   -1.1034    3.2232    0.6428 C   0  0  0  0  0  0  0  0  0  0  0  0
   -0.6496    2.4199    1.7144 C   0  0  0  0  0  0  0  0  0  0  0  0
   -3.6393    2.9997    3.1521 C   0  0  0  0  0  0  0  0  0  0  0  0
   -5.0064    3.2206    3.0364 C   0  0  0  0  0  0  0  0  0  0  0  0
   -5.7736    2.3854    2.2297 C   0  0  0  0  0  0  0  0  0  0  0  0
   -5.1900    1.3175    1.5292 C   0  0  0  0  0  0  0  0  0  0  0  0
   -5.9802    0.4832    0.7149 C   0  0  0  0  0  0  0  0  0  0  0  0
   -5.4562   -0.6107   -0.0185 C   0  0  0  0  0  0  0  0  0  0  0  0
  -10.3798   -4.6319   -4.1990 H   0  0  0  0  0  0  0  0  0  0  0  0
  -11.5530   -2.7857   -3.0282 H   0  0  0  0  0  0  0  0  0  0  0  0
  -10.2987   -1.2503   -1.5681 H   0  0  0  0  0  0  0  0  0  0  0  0
   -8.1840   -0.5482   -0.5658 H   0  0  0  0  0  0  0  0  0  0  0  0
   -5.8229   -4.2202   -2.8856 H   0  0  0  0  0  0  0  0  0  0  0  0
   -7.9520   -4.9381   -3.9058 H   0  0  0  0  0  0  0  0  0  0  0  0
   -3.7223   -3.5512   -1.9127 H   0  0  0  0  0  0  0  0  0  0  0  0
   -2.4031   -2.0857   -0.4934 H   0  0  0  0  0  0  0  0  0  0  0  0
   -2.2079   -0.2198    0.9853 H   0  0  0  0  0  0  0  0  0  0  0  0
   -2.9606    0.3254    4.5447 H   0  0  0  0  0  0  0  0  0  0  0  0
   -2.0045   -1.0638    6.3109 H   0  0  0  0  0  0  0  0  0  0  0  0
    0.4583   -1.3015    6.5234 H   0  0  0  0  0  0  0  0  0  0  0  0
    1.9440   -0.1337    4.9493 H   0  0  0  0  0  0  0  0  0  0  0  0
    2.2708    1.3076    3.0724 H   0  0  0  0  0  0  0  0  0  0  0  0
    2.2213    0.7900   -0.4993 H   0  0  0  0  0  0  0  0  0  0  0  0
    2.3401   -1.1508   -1.8865 H   0  0  0  0  0  0  0  0  0  0  0  0
    3.5922   -2.9575   -2.9220 H   0  0  0  0  0  0  0  0  0  0  0  0
    5.6522   -4.1413   -3.3220 H   0  0  0  0  0  0  0  0  0  0  0  0
    7.7395   -5.3839   -3.7584 H   0  0  0  0  0  0  0  0  0  0  0  0
   10.1656   -5.6519   -3.4188 H   0  0  0  0  0  0  0  0  0  0  0  0
   11.4086   -4.0482   -1.9907 H   0  0  0  0  0  0  0  0  0  0  0  0
   10.2241   -2.1805   -0.9060 H   0  0  0  0  0  0  0  0  0  0  0  0
    8.1515   -0.9593   -0.4817 H   0  0  0  0  0  0  0  0  0  0  0  0
    7.0706    0.6014    0.3927 H   0  0  0  0  0  0  0  0  0  0  0  0
    6.9467    2.5591    1.7799 H   0  0  0  0  0  0  0  0  0  0  0  0
    5.6447    4.3681    2.8173 H   0  0  0  0  0  0  0  0  0  0  0  0
    3.2126    4.5292    2.4341 H   0  0  0  0  0  0  0  0  0  0  0  0
    3.0559    4.3217   -0.9886 H   0  0  0  0  0  0  0  0  0  0  0  0
    2.0994    5.6553   -2.7972 H   0  0  0  0  0  0  0  0  0  0  0  0
   -0.3632    5.8715   -3.0269 H   0  0  0  0  0  0  0  0  0  0  0  0
   -1.8489    4.7425   -1.4255 H   0  0  0  0  0  0  0  0  0  0  0  0
   -2.1752    3.3529    0.4918 H   0  0  0  0  0  0  0  0  0  0  0  0
   -3.0449    3.6585    3.7829 H   0  0  0  0  0  0  0  0  0  0  0  0
   -5.4737    4.0424    3.5722 H   0  0  0  0  0  0  0  0  0  0  0  0
   -6.8422    2.5761    2.1509 H   0  0  0  0  0  0  0  0  0  0  0  0
   -7.0426    0.7049    0.6584 H   0  0  0  0  0  0  0  0  0  0  0  0
  1  2  4  0
  2  3  4  0
  3  4  4  0
  4  5  4  0
  5  6  4  0
  6  7  4  0
  7  8  4  0
  8  9  4  0
  9 10  4  0
  7 11  4  0
 11 12  4  0
 12 13  4  0
 13 14  4  0
 14 15  4  0
 15 16  4  0
 16 17  1  0
 17 18  4  0
 18 19  4  0
 19 20  4  0
 20 21  4  0
 21 22  4  0
 22 23  4  0
 23 24  4  0
 24 25  4  0
 25 26  4  0
 26 27  1  0
 27 28  4  0
 28 29  4  0
 29 30  4  0
 30 31  4  0
 31 32  4  0
 32 33  4  0
 33 34  4  0
 34 35  4  0
 35 36  4  0
 36 37  4  0
 37 38  4  0
 38 39  4  0
 39 40  4  0
 40 41  4  0
 41 42  4  0
 42 43  4  0
 43 44  4  0
 44 45  4  0
 45 46  4  0
 46 47  4  0
 47 48  4  0
 26 49  4  0
 49 50  4  0
 50 51  4  0
 51 52  4  0
 52 53  4  0
 53 54  4  0
 54 55  4  0
 55 56  4  0
 16 57  4  0
 57 58  4  0
 58 59  4  0
 59 60  4  0
 60 61  4  0
 61 62  4  0
 10  1  4  0
 62 13  4  0
  9  4  4  0
 60 15  4  0
 62  6  4  0
 56 17  4  0
 23 18  4  0
 56 25  4  0
 48 27  4  0
 54 49  4  0
 45 28  4  0
 43 30  4  0
 42 33  4  0
 40 35  4  0
  1 63  1  0
  2 64  1  0
  3 65  1  0
  5 66  1  0
  8 67  1  0
 10 68  1  0
 11 69  1  0
 12 70  1  0
 14 71  1  0
 19 72  1  0
 20 73  1  0
 21 74  1  0
 22 75  1  0
 24 76  1  0
 29 77  1  0
 31 78  1  0
 32 79  1  0
 34 80  1  0
 36 81  1  0
 37 82  1  0
 38 83  1  0
 39 84  1  0
 41 85  1  0
 44 86  1  0
 46 87  1  0
 47 88  1  0
 48 89  1  0
 50 90  1  0
 51 91  1  0
 52 92  1  0
 53 93  1  0
 55 94  1  0
 57 95  1  0
 58 96  1  0
 59 97  1  0
 61 98  1  0
M  END
