
     RDKit          3D

 98111  0  0  0  0  0  0  0  0999 V2000
    9.0899    5.0303   -1.8077 C   0  0  0  0  0  0  0  0  0  0  0  0
    9.8610    3.8911   -1.6020 C   0  0  0  0  0  0  0  0  0  0  0  0
    9.2607    2.7185   -1.1402 C   0  0  0  0  0  0  0  0  0  0  0  0
    7.8801    2.6697   -0.8788 C   0  0  0  0  0  0  0  0  0  0  0  0
    7.2540    1.4963   -0.4136 C   0  0  0  0  0  0  0  0  0  0  0  0
    5.8617    1.4110   -0.1402 C   0  0  0  0  0  0  0  0  0  0  0  0
    5.1131    2.5899   -0.3608 C   0  0  0  0  0  0  0  0  0  0  0  0
    5.7293    3.7658   -0.8242 C   0  0  0  0  0  0  0  0  0  0  0  0
    7.1035    3.8217   -1.0871 C   0  0  0  0  0  0  0  0  0  0  0  0
    7.7188    4.9967   -1.5516 C   0  0  0  0  0  0  0  0  0  0  0  0
    3.7432    2.5929   -0.1172 C   0  0  0  0  0  0  0  0  0  0  0  0
    3.1007    1.4469    0.3421 C   0  0  0  0  0  0  0  0  0  0  0  0
    3.7903    0.2409    0.5798 C   0  0  0  0  0  0  0  0  0  0  0  0
    3.1174   -0.9380    1.0504 C   0  0  0  0  0  0  0  0  0  0  0  0
    1.6398   -0.9073    1.2970 C   0  0  0  0  0  0  0  0  0  0  0  0
    1.1540   -0.5463    2.5935 C   0  0  0  0  0  0  0  0  0  0  0  0
    1.9866   -0.2123    3.6920 C   0  0  0  0  0  0  0  0  0  0  0  0
    1.4628    0.1359    4.9390 C   0  0  0  0  0  0  0  0  0  0  0  0
    0.0892    0.1615    5.1257 C   0  0  0  0  0  0  0  0  0  0  0  0
   -0.7538   -0.1620    4.0655 C   0  0  0  0  0  0  0  0  0  0  0  0
   -0.2360   -0.5149    2.8067 C   0  0  0  0  0  0  0  0  0  0  0  0
   -1.1047   -0.8363    1.7562 C   0  0  0  0  0  0  0  0  0  0  0  0
   -0.6630   -1.1982    0.4631 C   0  0  0  0  0  0  0  0  0  0  0  0
   -1.5747   -1.5222   -0.5993 C   0  0  0  0  0  0  0  0  0  0  0  0
   -3.0518   -1.4889   -0.3490 C   0  0  0  0  0  0  0  0  0  0  0  0
   -3.7912   -0.2760   -0.5646 C   0  0  0  0  0  0  0  0  0  0  0  0
   -3.1709    0.9020   -1.0273 C   0  0  0  0  0  0  0  0  0  0  0  0
   -3.8783    2.0827   -1.2342 C   0  0  0  0  0  0  0  0  0  0  0  0
   -5.2465    2.1440   -0.9884 C   0  0  0  0  0  0  0  0  0  0  0  0
   -5.9287    3.3540   -1.2077 C   0  0  0  0  0  0  0  0  0  0  0  0
   -7.3047    3.4752   -0.9785 C   0  0  0  0  0  0  0  0  0  0  0  0
   -7.9859    4.6847   -1.1982 C   0  0  0  0  0  0  0  0  0  0  0  0
   -9.3578    4.7834   -0.9634 C   0  0  0  0  0  0  0  0  0  0  0  0
  -10.0638    3.6752   -0.5073 C   0  0  0  0  0  0  0  0  0  0  0  0
   -9.3976    2.4686   -0.2860 C   0  0  0  0  0  0  0  0  0  0  0  0
   -8.0154    2.3544   -0.5177 C   0  0  0  0  0  0  0  0  0  0  0  0
   -7.3234    1.1463   -0.3005 C   0  0  0  0  0  0  0  0  0  0  0  0
   -5.9275    0.9953   -0.5245 C   0  0  0  0  0  0  0  0  0  0  0  0
   -5.1862   -0.2300   -0.3107 C   0  0  0  0  0  0  0  0  0  0  0  0
   -5.7894   -1.4223    0.1540 C   0  0  0  0  0  0  0  0  0  0  0  0
   -5.0879   -2.6191    0.3692 C   0  0  0  0  0  0  0  0  0  0  0  0
   -5.7638   -3.7613    0.8360 C   0  0  0  0  0  0  0  0  0  0  0  0
   -5.0891   -4.9600    1.0582 C   0  0  0  0  0  0  0  0  0  0  0  0
   -3.7264   -5.0327    0.8157 C   0  0  0  0  0  0  0  0  0  0  0  0
   -3.0457   -3.9050    0.3531 C   0  0  0  0  0  0  0  0  0  0  0  0
   -3.7053   -2.6708    0.1186 C   0  0  0  0  0  0  0  0  0  0  0  0
   -1.0903   -1.8829   -1.8957 C   0  0  0  0  0  0  0  0  0  0  0  0
   -1.9256   -2.2136   -2.9930 C   0  0  0  0  0  0  0  0  0  0  0  0
   -1.4049   -2.5616   -4.2412 C   0  0  0  0  0  0  0  0  0  0  0  0
   -0.0316   -2.5891   -4.4299 C   0  0  0  0  0  0  0  0  0  0  0  0
    0.8142   -2.2683   -3.3706 C   0  0  0  0  0  0  0  0  0  0  0  0
    0.2998   -1.9160   -2.1100 C   0  0  0  0  0  0  0  0  0  0  0  0
    1.1706   -1.5959   -1.0597 C   0  0  0  0  0  0  0  0  0  0  0  0
    0.7296   -1.2338    0.2339 C   0  0  0  0  0  0  0  0  0  0  0  0
    3.8398   -2.1488    1.2838 C   0  0  0  0  0  0  0  0  0  0  0  0
    3.2475   -3.3515    1.7477 C   0  0  0  0  0  0  0  0  0  0  0  0
    3.9953   -4.5113    1.9604 C   0  0  0  0  0  0  0  0  0  0  0  0
    5.3597   -4.5032    1.7153 C   0  0  0  0  0  0  0  0  0  0  0  0
    5.9691   -3.3363    1.2592 C   0  0  0  0  0  0  0  0  0  0  0  0
    5.2249   -2.1620    1.0414 C   0  0  0  0  0  0  0  0  0  0  0  0
    5.8608   -0.9985    0.5806 C   0  0  0  0  0  0  0  0  0  0  0  0
    5.1876    0.2217    0.3364 C   0  0  0  0  0  0  0  0  0  0  0  0
    9.5536    5.9450   -2.1671 H   0  0  0  0  0  0  0  0  0  0  0  0
   10.9294    3.9133   -1.8004 H   0  0  0  0  0  0  0  0  0  0  0  0
    9.8813    1.8387   -0.9852 H   0  0  0  0  0  0  0  0  0  0  0  0
    7.8888    0.6276   -0.2643 H   0  0  0  0  0  0  0  0  0  0  0  0
    5.1264    4.6587   -0.9837 H   0  0  0  0  0  0  0  0  0  0  0  0
    7.1305    5.8964   -1.7175 H   0  0  0  0  0  0  0  0  0  0  0  0
    3.1489    3.4894   -0.2812 H   0  0  0  0  0  0  0  0  0  0  0  0
    2.0278    1.5193    0.5137 H   0  0  0  0  0  0  0  0  0  0  0  0
    3.0698   -0.2203    3.5861 H   0  0  0  0  0  0  0  0  0  0  0  0
    2.1319    0.3856    5.7578 H   0  0  0  0  0  0  0  0  0  0  0  0
   -0.3281    0.4317    6.0916 H   0  0  0  0  0  0  0  0  0  0  0  0
   -1.8298   -0.1360    4.2290 H   0  0  0  0  0  0  0  0  0  0  0  0
   -2.1743   -0.8001    1.9627 H   0  0  0  0  0  0  0  0  0  0  0  0
   -2.1035    0.9235   -1.2408 H   0  0  0  0  0  0  0  0  0  0  0  0
   -3.3361    2.9554   -1.5929 H   0  0  0  0  0  0  0  0  0  0  0  0
   -5.3757    4.2213   -1.5657 H   0  0  0  0  0  0  0  0  0  0  0  0
   -7.4497    5.5610   -1.5554 H   0  0  0  0  0  0  0  0  0  0  0  0
   -9.8730    5.7245   -1.1374 H   0  0  0  0  0  0  0  0  0  0  0  0
  -11.1327    3.7479   -0.3238 H   0  0  0  0  0  0  0  0  0  0  0  0
   -9.9680    1.6135    0.0700 H   0  0  0  0  0  0  0  0  0  0  0  0
   -7.9087    0.3031    0.0555 H   0  0  0  0  0  0  0  0  0  0  0  0
   -6.8558   -1.4365    0.3641 H   0  0  0  0  0  0  0  0  0  0  0  0
   -6.8334   -3.7250    1.0329 H   0  0  0  0  0  0  0  0  0  0  0  0
   -5.6284   -5.8314    1.4188 H   0  0  0  0  0  0  0  0  0  0  0  0
   -3.1872   -5.9611    0.9836 H   0  0  0  0  0  0  0  0  0  0  0  0
   -1.9764   -4.0030    0.1738 H   0  0  0  0  0  0  0  0  0  0  0  0
   -3.0087   -2.2028   -2.8851 H   0  0  0  0  0  0  0  0  0  0  0  0
   -2.0760   -2.8091   -5.0594 H   0  0  0  0  0  0  0  0  0  0  0  0
    0.3837   -2.8579   -5.3971 H   0  0  0  0  0  0  0  0  0  0  0  0
    1.8895   -2.2952   -3.5372 H   0  0  0  0  0  0  0  0  0  0  0  0
    2.2404   -1.6322   -1.2665 H   0  0  0  0  0  0  0  0  0  0  0  0
    2.1795   -3.3976    1.9531 H   0  0  0  0  0  0  0  0  0  0  0  0
    3.5070   -5.4141    2.3173 H   0  0  0  0  0  0  0  0  0  0  0  0
    5.9506   -5.4004    1.8782 H   0  0  0  0  0  0  0  0  0  0  0  0
    7.0414   -3.3505    1.0733 H   0  0  0  0  0  0  0  0  0  0  0  0
    6.9321   -1.0629    0.4086 H   0  0  0  0  0  0  0  0  0  0  0  0
  1  2  4  0
  2  3  4  0
  3  4  4  0
  4  5  4  0
  5  6  4  0
  6  7  4  0
  7  8  4  0
  8  9  4  0
  9 10  4  0
  7 11  4  0
 11 12  4  0
 12 13  4  0
 13 14  4  0
 14 15  1  0
 15 16  4  0
 16 17  4  0
 17 18  4  0
 18 19  4  0
 19 20  4  0
 20 21  4  0
 21 22  4  0
 22 23  4  0
 23 24  4  0
 24 25  1  0
 25 26  4  0
 26 27  4  0
 27 28  4  0
 28 29  4  0
 29 30  4  0
 30 31  4  0
 31 32  4  0
 32 33  4  0
 33 34  4  0
 34 35  4  0
 35 36  4  0
 36 37  4  0
 37 38  4  0
 38 39  4  0
 39 40  4  0
 40 41  4  0
 41 42  4  0
 42 43  4  0
 43 44  4  0
 44 45  4  0
 45 46  4  0
 24 47  4  0
 47 48  4  0
 48 49  4  0
 49 50  4  0
 50 51  4  0
 51 52  4  0
 52 53  4  0
 53 54  4  0
 14 55  4  0
 55 56  4  0
 56 57  4  0
 57 58  4  0
 58 59  4  0
 59 60  4  0
 60 61  4  0
 61 62  4  0
 10  1  4  0
 62 13  4  0
  9  4  4  0
 54 15  4  0
 60 55  4  0
 62  6  4  0
 21 16  4  0
 54 23  4  0
 46 25  4  0
 52 47  4  0
 39 26  4  0
 46 41  4  0
 38 29  4  0
 36 31  4  0
  1 63  1  0
  2 64  1  0
  3 65  1  0
  5 66  1  0
  8 67  1  0
 10 68  1  0
 11 69  1  0
 12 70  1  0
 17 71  1  0
 18 72  1  0
 19 73  1  0
 20 74  1  0
 22 75  1  0
 27 76  1  0
 28 77  1  0
 30 78  1  0
 32 79  1  0
 33 80  1  0
 34 81  1  0
 35 82  1  0
 37 83  1  0
 40 84  1  0
 42 85  1  0
 43 86  1  0
 44 87  1  0
 45 88  1  0
 48 89  1  0
 49 90  1  0
 50 91  1  0
 51 92  1  0
 53 93  1  0
 56 94  1  0
 57 95  1  0
 58 96  1  0
 59 97  1  0
 61 98  1  0
M  END
