
     RDKit          3D

 90103  0  0  0  0  0  0  0  0999 V2000
   -8.1521   -2.1545    4.3870 C   0  0  0  0  0  0  0  0  0  0  0  0
   -6.9153   -1.6106    4.6938 C   0  0  0  0  0  0  0  0  0  0  0  0
   -6.0475   -1.2305    3.6655 C   0  0  0  0  0  0  0  0  0  0  0  0
   -6.3825   -1.3795    2.2943 C   0  0  0  0  0  0  0  0  0  0  0  0
   -7.6521   -1.9377    2.0117 C   0  0  0  0  0  0  0  0  0  0  0  0
   -8.5169   -2.3164    3.0537 C   0  0  0  0  0  0  0  0  0  0  0  0
   -8.0559   -2.1166    0.6857 C   0  0  0  0  0  0  0  0  0  0  0  0
   -7.2326   -1.7565   -0.3843 C   0  0  0  0  0  0  0  0  0  0  0  0
   -7.6703   -1.9492   -1.6994 C   0  0  0  0  0  0  0  0  0  0  0  0
   -6.8631   -1.5970   -2.7775 C   0  0  0  0  0  0  0  0  0  0  0  0
   -5.5984   -1.0438   -2.5659 C   0  0  0  0  0  0  0  0  0  0  0  0
   -5.1309   -0.8382   -1.2432 C   0  0  0  0  0  0  0  0  0  0  0  0
   -5.9583   -1.1981   -0.1367 C   0  0  0  0  0  0  0  0  0  0  0  0
   -5.5239   -1.0046    1.2006 C   0  0  0  0  0  0  0  0  0  0  0  0
   -4.2431   -0.4417    1.3735 C   0  0  0  0  0  0  0  0  0  0  0  0
   -3.4294   -0.0906    0.2920 C   0  0  0  0  0  0  0  0  0  0  0  0
   -3.8468   -0.2775   -1.0353 C   0  0  0  0  0  0  0  0  0  0  0  0
   -3.0415    0.0708   -2.1576 C   0  0  0  0  0  0  0  0  0  0  0  0
   -1.6814    0.6599   -2.0193 C   0  0  0  0  0  0  0  0  0  0  0  0
   -1.5404    2.0805   -1.9341 C   0  0  0  0  0  0  0  0  0  0  0  0
   -2.6286    2.9908   -1.9469 C   0  0  0  0  0  0  0  0  0  0  0  0
   -2.4414    4.3720   -1.8584 C   0  0  0  0  0  0  0  0  0  0  0  0
   -1.1584    4.8864   -1.7549 C   0  0  0  0  0  0  0  0  0  0  0  0
   -0.0694    4.0175   -1.7399 C   0  0  0  0  0  0  0  0  0  0  0  0
   -0.2472    2.6247   -1.8282 C   0  0  0  0  0  0  0  0  0  0  0  0
    0.8642    1.7707   -1.8125 C   0  0  0  0  0  0  0  0  0  0  0  0
    0.7655    0.3623   -1.8951 C   0  0  0  0  0  0  0  0  0  0  0  0
    1.9192   -0.4942   -1.8809 C   0  0  0  0  0  0  0  0  0  0  0  0
    3.2828    0.0971   -1.7995 C   0  0  0  0  0  0  0  0  0  0  0  0
    3.9386    0.3436   -0.5592 C   0  0  0  0  0  0  0  0  0  0  0  0
    3.3548    0.0508    0.6833 C   0  0  0  0  0  0  0  0  0  0  0  0
    4.0217    0.3045    1.8854 C   0  0  0  0  0  0  0  0  0  0  0  0
    5.3139    0.8664    1.9253 C   0  0  0  0  0  0  0  0  0  0  0  0
    5.9161    1.1661    0.6752 C   0  0  0  0  0  0  0  0  0  0  0  0
    7.2112    1.7299    0.6401 C   0  0  0  0  0  0  0  0  0  0  0  0
    7.8909    1.9900    1.8330 C   0  0  0  0  0  0  0  0  0  0  0  0
    7.3207    1.7056    3.0770 C   0  0  0  0  0  0  0  0  0  0  0  0
    8.0447    1.9867    4.2492 C   0  0  0  0  0  0  0  0  0  0  0  0
    7.5120    1.7180    5.5066 C   0  0  0  0  0  0  0  0  0  0  0  0
    6.2461    1.1638    5.6061 C   0  0  0  0  0  0  0  0  0  0  0  0
    5.5171    0.8804    4.4471 C   0  0  0  0  0  0  0  0  0  0  0  0
    6.0252    1.1397    3.1473 C   0  0  0  0  0  0  0  0  0  0  0  0
    7.8132    2.0277   -0.5878 C   0  0  0  0  0  0  0  0  0  0  0  0
    7.1501    1.7765   -1.7860 C   0  0  0  0  0  0  0  0  0  0  0  0
    5.8687    1.2204   -1.7849 C   0  0  0  0  0  0  0  0  0  0  0  0
    5.2373    0.9084   -0.5542 C   0  0  0  0  0  0  0  0  0  0  0  0
    5.2117    0.9719   -2.9933 C   0  0  0  0  0  0  0  0  0  0  0  0
    3.9360    0.4177   -3.0008 C   0  0  0  0  0  0  0  0  0  0  0  0
    1.7778   -1.9157   -1.9548 C   0  0  0  0  0  0  0  0  0  0  0  0
    2.8658   -2.8267   -1.9417 C   0  0  0  0  0  0  0  0  0  0  0  0
    2.6770   -4.2088   -2.0128 C   0  0  0  0  0  0  0  0  0  0  0  0
    1.3925   -4.7233   -2.0985 C   0  0  0  0  0  0  0  0  0  0  0  0
    0.3037   -3.8538   -2.1125 C   0  0  0  0  0  0  0  0  0  0  0  0
    0.4834   -2.4603   -2.0426 C   0  0  0  0  0  0  0  0  0  0  0  0
   -0.6276   -1.6060   -2.0605 C   0  0  0  0  0  0  0  0  0  0  0  0
   -0.5282   -0.1969   -1.9929 C   0  0  0  0  0  0  0  0  0  0  0  0
   -3.5362   -0.1434   -3.4547 C   0  0  0  0  0  0  0  0  0  0  0  0
   -4.7973   -0.6937   -3.6559 C   0  0  0  0  0  0  0  0  0  0  0  0
   -8.8323   -2.4527    5.1797 H   0  0  0  0  0  0  0  0  0  0  0  0
   -6.6182   -1.4790    5.7309 H   0  0  0  0  0  0  0  0  0  0  0  0
   -5.0911   -0.8103    3.9632 H   0  0  0  0  0  0  0  0  0  0  0  0
   -9.4921   -2.7452    2.8313 H   0  0  0  0  0  0  0  0  0  0  0  0
   -9.0353   -2.5465    0.4811 H   0  0  0  0  0  0  0  0  0  0  0  0
   -8.6500   -2.3779   -1.8995 H   0  0  0  0  0  0  0  0  0  0  0  0
   -7.2349   -1.7609   -3.7865 H   0  0  0  0  0  0  0  0  0  0  0  0
   -3.8398   -0.2597    2.3655 H   0  0  0  0  0  0  0  0  0  0  0  0
   -2.4533    0.3384    0.5121 H   0  0  0  0  0  0  0  0  0  0  0  0
   -3.6518    2.6269   -2.0227 H   0  0  0  0  0  0  0  0  0  0  0  0
   -3.3003    5.0376   -1.8690 H   0  0  0  0  0  0  0  0  0  0  0  0
   -1.0023    5.9593   -1.6842 H   0  0  0  0  0  0  0  0  0  0  0  0
    0.9307    4.4387   -1.6568 H   0  0  0  0  0  0  0  0  0  0  0  0
    1.8487    2.2309   -1.7279 H   0  0  0  0  0  0  0  0  0  0  0  0
    2.3592   -0.3860    0.7405 H   0  0  0  0  0  0  0  0  0  0  0  0
    3.4928    0.0463    2.7984 H   0  0  0  0  0  0  0  0  0  0  0  0
    8.8884    2.4251    1.7920 H   0  0  0  0  0  0  0  0  0  0  0  0
    9.0404    2.4222    4.1901 H   0  0  0  0  0  0  0  0  0  0  0  0
    8.0850    1.9415    6.4021 H   0  0  0  0  0  0  0  0  0  0  0  0
    5.8188    0.9493    6.5822 H   0  0  0  0  0  0  0  0  0  0  0  0
    4.5305    0.4471    4.5836 H   0  0  0  0  0  0  0  0  0  0  0  0
    8.8107    2.4607   -0.6245 H   0  0  0  0  0  0  0  0  0  0  0  0
    7.6481    2.0210   -2.7218 H   0  0  0  0  0  0  0  0  0  0  0  0
    5.6869    1.2068   -3.9432 H   0  0  0  0  0  0  0  0  0  0  0  0
    3.4431    0.2316   -3.9536 H   0  0  0  0  0  0  0  0  0  0  0  0
    3.8895   -2.4631   -1.8704 H   0  0  0  0  0  0  0  0  0  0  0  0
    3.5353   -4.8754   -1.9985 H   0  0  0  0  0  0  0  0  0  0  0  0
    1.2347   -5.7969   -2.1525 H   0  0  0  0  0  0  0  0  0  0  0  0
   -0.6978   -4.2753   -2.1781 H   0  0  0  0  0  0  0  0  0  0  0  0
   -1.6130   -2.0670   -2.1264 H   0  0  0  0  0  0  0  0  0  0  0  0
   -2.9292    0.1224   -4.3186 H   0  0  0  0  0  0  0  0  0  0  0  0
   -5.1470   -0.8455   -4.6747 H   0  0  0  0  0  0  0  0  0  0  0  0
  1  2  4  0
  2  3  4  0
  3  4  4  0
  4  5  4  0
  5  6  4  0
  5  7  4  0
  7  8  4  0
  8  9  4  0
  9 10  4  0
 10 11  4  0
 11 12  4  0
 12 13  4  0
 13 14  4  0
 14 15  4  0
 15 16  4  0
 16 17  4  0
 17 18  4  0
 18 19  1  0
 19 20  4  0
 20 21  4  0
 21 22  4  0
 22 23  4  0
 23 24  4  0
 24 25  4  0
 25 26  4  0
 26 27  4  0
 27 28  4  0
 28 29  1  0
 29 30  4  0
 30 31  4  0
 31 32  4  0
 32 33  4  0
 33 34  4  0
 34 35  4  0
 35 36  4  0
 36 37  4  0
 37 38  4  0
 38 39  4  0
 39 40  4  0
 40 41  4  0
 41 42  4  0
 35 43  4  0
 43 44  4  0
 44 45  4  0
 45 46  4  0
 45 47  4  0
 47 48  4  0
 28 49  4  0
 49 50  4  0
 50 51  4  0
 51 52  4  0
 52 53  4  0
 53 54  4  0
 54 55  4  0
 55 56  4  0
 18 57  4  0
 57 58  4  0
  6  1  4  0
 13  8  4  0
 56 19  4  0
 14  4  4  0
 25 20  4  0
 56 27  4  0
 58 11  4  0
 17 12  4  0
 48 29  4  0
 54 49  4  0
 46 30  4  0
 42 33  4  0
 46 34  4  0
 42 37  4  0
  1 59  1  0
  2 60  1  0
  3 61  1  0
  6 62  1  0
  7 63  1  0
  9 64  1  0
 10 65  1  0
 15 66  1  0
 16 67  1  0
 21 68  1  0
 22 69  1  0
 23 70  1  0
 24 71  1  0
 26 72  1  0
 31 73  1  0
 32 74  1  0
 36 75  1  0
 38 76  1  0
 39 77  1  0
 40 78  1  0
 41 79  1  0
 43 80  1  0
 44 81  1  0
 47 82  1  0
 48 83  1  0
 50 84  1  0
 51 85  1  0
 52 86  1  0
 53 87  1  0
 55 88  1  0
 57 89  1  0
 58 90  1  0
M  END
