
     RDKit          3D

 90103  0  0  0  0  0  0  0  0999 V2000
    3.9768   -2.8066   -3.9695 C   0  0  0  0  0  0  0  0  0  0  0  0
    5.2953   -3.1394   -3.7072 C   0  0  0  0  0  0  0  0  0  0  0  0
    5.9492   -2.5780   -2.6059 C   0  0  0  0  0  0  0  0  0  0  0  0
    5.3108   -1.6646   -1.7257 C   0  0  0  0  0  0  0  0  0  0  0  0
    3.9665   -1.3481   -2.0174 C   0  0  0  0  0  0  0  0  0  0  0  0
    3.3177   -1.9160   -3.1283 C   0  0  0  0  0  0  0  0  0  0  0  0
    3.2660   -0.4617   -1.1951 C   0  0  0  0  0  0  0  0  0  0  0  0
    3.8436    0.1438   -0.0634 C   0  0  0  0  0  0  0  0  0  0  0  0
    5.1939   -0.1586    0.2384 C   0  0  0  0  0  0  0  0  0  0  0  0
    5.9354   -1.0573   -0.5818 C   0  0  0  0  0  0  0  0  0  0  0  0
    7.2771   -1.3076   -0.2135 C   0  0  0  0  0  0  0  0  0  0  0  0
    7.8722   -0.7139    0.9014 C   0  0  0  0  0  0  0  0  0  0  0  0
    7.1483    0.1623    1.7052 C   0  0  0  0  0  0  0  0  0  0  0  0
    7.7400    0.7596    2.8282 C   0  0  0  0  0  0  0  0  0  0  0  0
    7.0128    1.6344    3.6300 C   0  0  0  0  0  0  0  0  0  0  0  0
    5.6868    1.9197    3.3167 C   0  0  0  0  0  0  0  0  0  0  0  0
    5.0740    1.3337    2.1991 C   0  0  0  0  0  0  0  0  0  0  0  0
    5.8032    0.4447    1.3771 C   0  0  0  0  0  0  0  0  0  0  0  0
    3.7434    1.6152    1.8885 C   0  0  0  0  0  0  0  0  0  0  0  0
    3.1143    1.0336    0.7751 C   0  0  0  0  0  0  0  0  0  0  0  0
    1.6825    1.3631    0.5306 C   0  0  0  0  0  0  0  0  0  0  0  0
    1.3499    2.4997   -0.2702 C   0  0  0  0  0  0  0  0  0  0  0  0
    2.3059    3.3683   -0.8564 C   0  0  0  0  0  0  0  0  0  0  0  0
    1.9302    4.4647   -1.6358 C   0  0  0  0  0  0  0  0  0  0  0  0
    0.5857    4.7255   -1.8538 C   0  0  0  0  0  0  0  0  0  0  0  0
   -0.3764    3.8882   -1.2938 C   0  0  0  0  0  0  0  0  0  0  0  0
   -0.0082    2.7815   -0.5080 C   0  0  0  0  0  0  0  0  0  0  0  0
   -0.9943    1.9484    0.0370 C   0  0  0  0  0  0  0  0  0  0  0  0
   -0.7045    0.8152    0.8316 C   0  0  0  0  0  0  0  0  0  0  0  0
   -1.7313   -0.0353    1.3674 C   0  0  0  0  0  0  0  0  0  0  0  0
   -3.1625    0.2604    1.0812 C   0  0  0  0  0  0  0  0  0  0  0  0
   -3.8576    1.0736    1.9919 C   0  0  0  0  0  0  0  0  0  0  0  0
   -5.1974    1.4054    1.7929 C   0  0  0  0  0  0  0  0  0  0  0  0
   -5.8693    0.9138    0.6510 C   0  0  0  0  0  0  0  0  0  0  0  0
   -7.2264    1.2584    0.4603 C   0  0  0  0  0  0  0  0  0  0  0  0
   -7.8848    2.0730    1.3937 C   0  0  0  0  0  0  0  0  0  0  0  0
   -7.2125    2.5514    2.5145 C   0  0  0  0  0  0  0  0  0  0  0  0
   -5.8756    2.2194    2.7125 C   0  0  0  0  0  0  0  0  0  0  0  0
   -7.8955    0.7797   -0.6625 C   0  0  0  0  0  0  0  0  0  0  0  0
   -7.2344   -0.0294   -1.5887 C   0  0  0  0  0  0  0  0  0  0  0  0
   -5.8782   -0.4014   -1.4416 C   0  0  0  0  0  0  0  0  0  0  0  0
   -5.1918    0.0865   -0.2920 C   0  0  0  0  0  0  0  0  0  0  0  0
   -3.8312   -0.2414   -0.0716 C   0  0  0  0  0  0  0  0  0  0  0  0
   -3.1855   -1.0600   -1.0180 C   0  0  0  0  0  0  0  0  0  0  0  0
   -3.8316   -1.5522   -2.1563 C   0  0  0  0  0  0  0  0  0  0  0  0
   -3.1189   -2.3622   -3.0587 C   0  0  0  0  0  0  0  0  0  0  0  0
   -3.7251   -2.8720   -4.2031 C   0  0  0  0  0  0  0  0  0  0  0  0
   -5.0545   -2.5774   -4.4580 C   0  0  0  0  0  0  0  0  0  0  0  0
   -5.7710   -1.7723   -3.5672 C   0  0  0  0  0  0  0  0  0  0  0  0
   -5.1875   -1.2332   -2.3894 C   0  0  0  0  0  0  0  0  0  0  0  0
   -1.3975   -1.1712    2.1700 C   0  0  0  0  0  0  0  0  0  0  0  0
   -2.3509   -2.0576    2.7333 C   0  0  0  0  0  0  0  0  0  0  0  0
   -1.9732   -3.1549    3.5110 C   0  0  0  0  0  0  0  0  0  0  0  0
   -0.6293   -3.4017    3.7470 C   0  0  0  0  0  0  0  0  0  0  0  0
    0.3307   -2.5512    3.2040 C   0  0  0  0  0  0  0  0  0  0  0  0
   -0.0400   -1.4429    2.4210 C   0  0  0  0  0  0  0  0  0  0  0  0
    0.9442   -0.6048    1.8819 C   0  0  0  0  0  0  0  0  0  0  0  0
    0.6541    0.5264    1.0848 C   0  0  0  0  0  0  0  0  0  0  0  0
    3.4612   -3.2362   -4.8235 H   0  0  0  0  0  0  0  0  0  0  0  0
    5.8226   -3.8343   -4.3552 H   0  0  0  0  0  0  0  0  0  0  0  0
    6.9821   -2.8746   -2.4494 H   0  0  0  0  0  0  0  0  0  0  0  0
    2.2815   -1.6646   -3.3474 H   0  0  0  0  0  0  0  0  0  0  0  0
    2.2303   -0.2385   -1.4498 H   0  0  0  0  0  0  0  0  0  0  0  0
    7.9004   -1.9804   -0.7952 H   0  0  0  0  0  0  0  0  0  0  0  0
    8.9094   -0.9487    1.1299 H   0  0  0  0  0  0  0  0  0  0  0  0
    8.7749    0.5464    3.0867 H   0  0  0  0  0  0  0  0  0  0  0  0
    7.4785    2.0931    4.4980 H   0  0  0  0  0  0  0  0  0  0  0  0
    5.1326    2.6052    3.9545 H   0  0  0  0  0  0  0  0  0  0  0  0
    3.1717    2.2943    2.5202 H   0  0  0  0  0  0  0  0  0  0  0  0
    3.3710    3.1947   -0.7137 H   0  0  0  0  0  0  0  0  0  0  0  0
    2.6906    5.1075   -2.0709 H   0  0  0  0  0  0  0  0  0  0  0  0
    0.2828    5.5751   -2.4592 H   0  0  0  0  0  0  0  0  0  0  0  0
   -1.4268    4.1055   -1.4792 H   0  0  0  0  0  0  0  0  0  0  0  0
   -2.0335    2.1972   -0.1767 H   0  0  0  0  0  0  0  0  0  0  0  0
   -3.3315    1.4496    2.8690 H   0  0  0  0  0  0  0  0  0  0  0  0
   -8.9295    2.3413    1.2530 H   0  0  0  0  0  0  0  0  0  0  0  0
   -7.7294    3.1822    3.2325 H   0  0  0  0  0  0  0  0  0  0  0  0
   -5.3635    2.6026    3.5928 H   0  0  0  0  0  0  0  0  0  0  0  0
   -8.9402    1.0288   -0.8347 H   0  0  0  0  0  0  0  0  0  0  0  0
   -7.8174   -0.3663   -2.4408 H   0  0  0  0  0  0  0  0  0  0  0  0
   -2.1395   -1.3271   -0.8676 H   0  0  0  0  0  0  0  0  0  0  0  0
   -2.0738   -2.6045   -2.8728 H   0  0  0  0  0  0  0  0  0  0  0  0
   -3.1590   -3.4962   -4.8885 H   0  0  0  0  0  0  0  0  0  0  0  0
   -5.5411   -2.9699   -5.3471 H   0  0  0  0  0  0  0  0  0  0  0  0
   -6.8090   -1.5734   -3.8172 H   0  0  0  0  0  0  0  0  0  0  0  0
   -3.4159   -1.9023    2.5684 H   0  0  0  0  0  0  0  0  0  0  0  0
   -2.7325   -3.8127    3.9255 H   0  0  0  0  0  0  0  0  0  0  0  0
   -0.3257   -4.2538    4.3488 H   0  0  0  0  0  0  0  0  0  0  0  0
    1.3815   -2.7621    3.3957 H   0  0  0  0  0  0  0  0  0  0  0  0
    1.9835   -0.8544    2.0941 H   0  0  0  0  0  0  0  0  0  0  0  0
  1  2  4  0
  2  3  4  0
  3  4  4  0
  4  5  4  0
  5  6  4  0
  5  7  4  0
  7  8  4  0
  8  9  4  0
  9 10  4  0
 10 11  4  0
 11 12  4  0
 12 13  4  0
 13 14  4  0
 14 15  4  0
 15 16  4  0
 16 17  4  0
 17 18  4  0
 17 19  4  0
 19 20  4  0
 20 21  1  0
 21 22  4  0
 22 23  4  0
 23 24  4  0
 24 25  4  0
 25 26  4  0
 26 27  4  0
 27 28  4  0
 28 29  4  0
 29 30  4  0
 30 31  1  0
 31 32  4  0
 32 33  4  0
 33 34  4  0
 34 35  4  0
 35 36  4  0
 36 37  4  0
 37 38  4  0
 35 39  4  0
 39 40  4  0
 40 41  4  0
 41 42  4  0
 42 43  4  0
 43 44  4  0
 44 45  4  0
 45 46  4  0
 46 47  4  0
 47 48  4  0
 48 49  4  0
 49 50  4  0
 30 51  4  0
 51 52  4  0
 52 53  4  0
 53 54  4  0
 54 55  4  0
 55 56  4  0
 56 57  4  0
 57 58  4  0
  6  1  4  0
 20  8  4  0
 58 21  4  0
 10  4  4  0
 18 13  4  0
 27 22  4  0
 58 29  4  0
 18  9  4  0
 43 31  4  0
 50 45  4  0
 56 51  4  0
 38 33  4  0
 50 41  4  0
 42 34  4  0
  1 59  1  0
  2 60  1  0
  3 61  1  0
  6 62  1  0
  7 63  1  0
 11 64  1  0
 12 65  1  0
 14 66  1  0
 15 67  1  0
 16 68  1  0
 19 69  1  0
 23 70  1  0
 24 71  1  0
 25 72  1  0
 26 73  1  0
 28 74  1  0
 32 75  1  0
 36 76  1  0
 37 77  1  0
 38 78  1  0
 39 79  1  0
 40 80  1  0
 44 81  1  0
 46 82  1  0
 47 83  1  0
 48 84  1  0
 49 85  1  0
 52 86  1  0
 53 87  1  0
 54 88  1  0
 55 89  1  0
 57 90  1  0
M  END
