
     RDKit          3D

 90103  0  0  0  0  0  0  0  0999 V2000
   12.2287    0.5420    0.5815 C   0  0  0  0  0  0  0  0  0  0  0  0
   11.6191    1.2219    1.6237 C   0  0  0  0  0  0  0  0  0  0  0  0
   10.2291    1.3706    1.6394 C   0  0  0  0  0  0  0  0  0  0  0  0
    9.3979    0.8458    0.6162 C   0  0  0  0  0  0  0  0  0  0  0  0
   10.0482    0.1559   -0.4364 C   0  0  0  0  0  0  0  0  0  0  0  0
   11.4470    0.0131   -0.4416 C   0  0  0  0  0  0  0  0  0  0  0  0
    9.2982   -0.3907   -1.4828 C   0  0  0  0  0  0  0  0  0  0  0  0
    7.9060   -0.2762   -1.5222 C   0  0  0  0  0  0  0  0  0  0  0  0
    7.1785   -0.8342   -2.5822 C   0  0  0  0  0  0  0  0  0  0  0  0
    5.7894   -0.7272   -2.6317 C   0  0  0  0  0  0  0  0  0  0  0  0
    5.0933   -0.0583   -1.6212 C   0  0  0  0  0  0  0  0  0  0  0  0
    5.8130    0.5118   -0.5444 C   0  0  0  0  0  0  0  0  0  0  0  0
    5.1093    1.1876    0.4741 C   0  0  0  0  0  0  0  0  0  0  0  0
    3.7110    1.2878    0.4104 C   0  0  0  0  0  0  0  0  0  0  0  0
    2.9912    0.7234   -0.6518 C   0  0  0  0  0  0  0  0  0  0  0  0
    1.5153    0.8304   -0.7045 C   0  0  0  0  0  0  0  0  0  0  0  0
    0.9180    1.9366   -1.3854 C   0  0  0  0  0  0  0  0  0  0  0  0
    1.6520    2.9669   -2.0280 C   0  0  0  0  0  0  0  0  0  0  0  0
    1.0228    4.0288   -2.6815 C   0  0  0  0  0  0  0  0  0  0  0  0
   -0.3617    4.0936   -2.7128 C   0  0  0  0  0  0  0  0  0  0  0  0
   -1.1101    3.0971   -2.0904 C   0  0  0  0  0  0  0  0  0  0  0  0
   -0.4859    2.0237   -1.4292 C   0  0  0  0  0  0  0  0  0  0  0  0
   -1.2606    1.0345   -0.8089 C   0  0  0  0  0  0  0  0  0  0  0  0
   -0.7074   -0.0717   -0.1232 C   0  0  0  0  0  0  0  0  0  0  0  0
   -1.5212   -1.0717    0.5101 C   0  0  0  0  0  0  0  0  0  0  0  0
   -2.9968   -0.9635    0.4595 C   0  0  0  0  0  0  0  0  0  0  0  0
   -3.7225   -1.5617   -0.5800 C   0  0  0  0  0  0  0  0  0  0  0  0
   -5.1204   -1.4592   -0.6423 C   0  0  0  0  0  0  0  0  0  0  0  0
   -5.8172   -0.7403    0.3577 C   0  0  0  0  0  0  0  0  0  0  0  0
   -5.0918   -0.1398    1.4076 C   0  0  0  0  0  0  0  0  0  0  0  0
   -3.6945   -0.2574    1.4491 C   0  0  0  0  0  0  0  0  0  0  0  0
   -5.7831    0.5660    2.3911 C   0  0  0  0  0  0  0  0  0  0  0  0
   -7.1753    0.6811    2.3385 C   0  0  0  0  0  0  0  0  0  0  0  0
   -7.9448    0.0984    1.3048 C   0  0  0  0  0  0  0  0  0  0  0  0
   -7.2347   -0.6220    0.3074 C   0  0  0  0  0  0  0  0  0  0  0  0
   -7.9312   -1.2347   -0.7567 C   0  0  0  0  0  0  0  0  0  0  0  0
   -9.3225   -1.1270   -0.8251 C   0  0  0  0  0  0  0  0  0  0  0  0
  -10.0501   -0.4233    0.1399 C   0  0  0  0  0  0  0  0  0  0  0  0
  -11.4489   -0.3426    0.0255 C   0  0  0  0  0  0  0  0  0  0  0  0
  -12.2095    0.3479    0.9646 C   0  0  0  0  0  0  0  0  0  0  0  0
  -11.5785    0.9669    2.0317 C   0  0  0  0  0  0  0  0  0  0  0  0
  -10.1879    0.8935    2.1559 C   0  0  0  0  0  0  0  0  0  0  0  0
   -9.3779    0.2001    1.2198 C   0  0  0  0  0  0  0  0  0  0  0  0
   -7.2268   -1.9461   -1.7374 C   0  0  0  0  0  0  0  0  0  0  0  0
   -5.8384   -2.0574   -1.6815 C   0  0  0  0  0  0  0  0  0  0  0  0
   -0.9241   -2.1747    1.1962 C   0  0  0  0  0  0  0  0  0  0  0  0
   -1.6582   -3.1983    1.8493 C   0  0  0  0  0  0  0  0  0  0  0  0
   -1.0288   -4.2562    2.5091 C   0  0  0  0  0  0  0  0  0  0  0  0
    0.3558   -4.3235    2.5354 C   0  0  0  0  0  0  0  0  0  0  0  0
    1.1042   -3.3337    1.9023 C   0  0  0  0  0  0  0  0  0  0  0  0
    0.4797   -2.2637    1.2364 C   0  0  0  0  0  0  0  0  0  0  0  0
    1.2543   -1.2781    0.6103 C   0  0  0  0  0  0  0  0  0  0  0  0
    0.7012   -0.1712   -0.0742 C   0  0  0  0  0  0  0  0  0  0  0  0
    3.6954    0.0534   -1.6620 C   0  0  0  0  0  0  0  0  0  0  0  0
    5.8229    1.7464    1.5335 C   0  0  0  0  0  0  0  0  0  0  0  0
    7.2158    1.6403    1.5878 C   0  0  0  0  0  0  0  0  0  0  0  0
    7.9643    0.9731    0.5901 C   0  0  0  0  0  0  0  0  0  0  0  0
    7.2315    0.4060   -0.4865 C   0  0  0  0  0  0  0  0  0  0  0  0
   13.3084    0.4222    0.5620 H   0  0  0  0  0  0  0  0  0  0  0  0
   12.2190    1.6395    2.4281 H   0  0  0  0  0  0  0  0  0  0  0  0
    9.8049    1.9130    2.4794 H   0  0  0  0  0  0  0  0  0  0  0  0
   11.9442   -0.5172   -1.2517 H   0  0  0  0  0  0  0  0  0  0  0  0
    9.8103   -0.9186   -2.2860 H   0  0  0  0  0  0  0  0  0  0  0  0
    7.6891   -1.3611   -3.3856 H   0  0  0  0  0  0  0  0  0  0  0  0
    5.2575   -1.1725   -3.4696 H   0  0  0  0  0  0  0  0  0  0  0  0
    3.1676    1.8103    1.1965 H   0  0  0  0  0  0  0  0  0  0  0  0
    2.7406    2.9534   -2.0260 H   0  0  0  0  0  0  0  0  0  0  0  0
    1.6194    4.7994   -3.1627 H   0  0  0  0  0  0  0  0  0  0  0  0
   -0.8604    4.9154   -3.2192 H   0  0  0  0  0  0  0  0  0  0  0  0
   -2.1962    3.1637   -2.1248 H   0  0  0  0  0  0  0  0  0  0  0  0
   -2.3444    1.1380   -0.8656 H   0  0  0  0  0  0  0  0  0  0  0  0
   -3.1836   -2.1127   -1.3496 H   0  0  0  0  0  0  0  0  0  0  0  0
   -3.1340    0.2070    2.2595 H   0  0  0  0  0  0  0  0  0  0  0  0
   -5.2483    1.0376    3.2129 H   0  0  0  0  0  0  0  0  0  0  0  0
   -7.6479    1.2459    3.1368 H   0  0  0  0  0  0  0  0  0  0  0  0
   -9.8518   -1.6020   -1.6499 H   0  0  0  0  0  0  0  0  0  0  0  0
  -11.9624   -0.8222   -0.8057 H   0  0  0  0  0  0  0  0  0  0  0  0
  -13.2897    0.4003    0.8608 H   0  0  0  0  0  0  0  0  0  0  0  0
  -12.1619    1.5086    2.7715 H   0  0  0  0  0  0  0  0  0  0  0  0
   -9.7460    1.3966    3.0110 H   0  0  0  0  0  0  0  0  0  0  0  0
   -7.7556   -2.4236   -2.5599 H   0  0  0  0  0  0  0  0  0  0  0  0
   -5.3244   -2.6167   -2.4602 H   0  0  0  0  0  0  0  0  0  0  0  0
   -2.7467   -3.1815    1.8525 H   0  0  0  0  0  0  0  0  0  0  0  0
   -1.6249   -5.0209    3.0000 H   0  0  0  0  0  0  0  0  0  0  0  0
    0.8557   -5.1409    3.0472 H   0  0  0  0  0  0  0  0  0  0  0  0
    2.1902   -3.4026    1.9340 H   0  0  0  0  0  0  0  0  0  0  0  0
    2.3378   -1.3834    0.6641 H   0  0  0  0  0  0  0  0  0  0  0  0
    3.1393   -0.3854   -2.4895 H   0  0  0  0  0  0  0  0  0  0  0  0
    5.3049    2.2714    2.3333 H   0  0  0  0  0  0  0  0  0  0  0  0
    7.7071    2.0986    2.4414 H   0  0  0  0  0  0  0  0  0  0  0  0
  1  2  4  0
  2  3  4  0
  3  4  4  0
  4  5  4  0
  5  6  4  0
  5  7  4  0
  7  8  4  0
  8  9  4  0
  9 10  4  0
 10 11  4  0
 11 12  4  0
 12 13  4  0
 13 14  4  0
 14 15  4  0
 15 16  1  0
 16 17  4  0
 17 18  4  0
 18 19  4  0
 19 20  4  0
 20 21  4  0
 21 22  4  0
 22 23  4  0
 23 24  4  0
 24 25  4  0
 25 26  1  0
 26 27  4  0
 27 28  4  0
 28 29  4  0
 29 30  4  0
 30 31  4  0
 30 32  4  0
 32 33  4  0
 33 34  4  0
 34 35  4  0
 35 36  4  0
 36 37  4  0
 37 38  4  0
 38 39  4  0
 39 40  4  0
 40 41  4  0
 41 42  4  0
 42 43  4  0
 36 44  4  0
 44 45  4  0
 25 46  4  0
 46 47  4  0
 47 48  4  0
 48 49  4  0
 49 50  4  0
 50 51  4  0
 51 52  4  0
 52 53  4  0
 15 54  4  0
 13 55  4  0
 55 56  4  0
 56 57  4  0
 57 58  4  0
  6  1  4  0
 58  8  4  0
 57  4  4  0
 54 11  4  0
 58 12  4  0
 53 16  4  0
 22 17  4  0
 53 24  4  0
 31 26  4  0
 43 34  4  0
 51 46  4  0
 45 28  4  0
 35 29  4  0
 43 38  4  0
  1 59  1  0
  2 60  1  0
  3 61  1  0
  6 62  1  0
  7 63  1  0
  9 64  1  0
 10 65  1  0
 14 66  1  0
 18 67  1  0
 19 68  1  0
 20 69  1  0
 21 70  1  0
 23 71  1  0
 27 72  1  0
 31 73  1  0
 32 74  1  0
 33 75  1  0
 37 76  1  0
 39 77  1  0
 40 78  1  0
 41 79  1  0
 42 80  1  0
 44 81  1  0
 45 82  1  0
 47 83  1  0
 48 84  1  0
 49 85  1  0
 50 86  1  0
 52 87  1  0
 54 88  1  0
 55 89  1  0
 56 90  1  0
M  END
