
     RDKit          3D

 90103  0  0  0  0  0  0  0  0999 V2000
   12.2500   -0.0653   -0.1554 C   0  0  0  0  0  0  0  0  0  0  0  0
   11.6147   -0.3841   -1.3534 C   0  0  0  0  0  0  0  0  0  0  0  0
   10.2220   -0.5448   -1.4029 C   0  0  0  0  0  0  0  0  0  0  0  0
    9.4537   -0.3818   -0.2246 C   0  0  0  0  0  0  0  0  0  0  0  0
   10.1057   -0.0589    0.9848 C   0  0  0  0  0  0  0  0  0  0  0  0
   11.5000    0.0964    1.0071 C   0  0  0  0  0  0  0  0  0  0  0  0
    9.3441    0.1005    2.1418 C   0  0  0  0  0  0  0  0  0  0  0  0
    7.9552   -0.0563    2.1072 C   0  0  0  0  0  0  0  0  0  0  0  0
    7.2582   -0.3786    0.9190 C   0  0  0  0  0  0  0  0  0  0  0  0
    8.0394   -0.5408   -0.2562 C   0  0  0  0  0  0  0  0  0  0  0  0
    7.4182   -0.8642   -1.4819 C   0  0  0  0  0  0  0  0  0  0  0  0
    6.0310   -1.0239   -1.5328 C   0  0  0  0  0  0  0  0  0  0  0  0
    5.2339   -0.8688   -0.3942 C   0  0  0  0  0  0  0  0  0  0  0  0
    3.8412   -1.0368   -0.4994 C   0  0  0  0  0  0  0  0  0  0  0  0
    2.9959   -0.8897    0.6077 C   0  0  0  0  0  0  0  0  0  0  0  0
    1.5321   -1.0652    0.4747 C   0  0  0  0  0  0  0  0  0  0  0  0
    0.9613   -2.3604    0.6785 C   0  0  0  0  0  0  0  0  0  0  0  0
    1.7119   -3.5202    1.0020 C   0  0  0  0  0  0  0  0  0  0  0  0
    1.1082   -4.7654    1.1920 C   0  0  0  0  0  0  0  0  0  0  0  0
   -0.2667   -4.8897    1.0650 C   0  0  0  0  0  0  0  0  0  0  0  0
   -1.0308   -3.7691    0.7480 C   0  0  0  0  0  0  0  0  0  0  0  0
   -0.4322   -2.5111    0.5534 C   0  0  0  0  0  0  0  0  0  0  0  0
   -1.2229   -1.3997    0.2329 C   0  0  0  0  0  0  0  0  0  0  0  0
   -0.6964   -0.1047    0.0207 C   0  0  0  0  0  0  0  0  0  0  0  0
   -1.5270    1.0196   -0.3098 C   0  0  0  0  0  0  0  0  0  0  0  0
   -2.9912    0.8445   -0.4422 C   0  0  0  0  0  0  0  0  0  0  0  0
   -3.5646    0.5098   -1.6686 C   0  0  0  0  0  0  0  0  0  0  0  0
   -4.9497    0.3491   -1.7852 C   0  0  0  0  0  0  0  0  0  0  0  0
   -5.8275    0.5164   -0.6851 C   0  0  0  0  0  0  0  0  0  0  0  0
   -5.2320    0.8547    0.5539 C   0  0  0  0  0  0  0  0  0  0  0  0
   -3.8381    1.0128    0.6605 C   0  0  0  0  0  0  0  0  0  0  0  0
   -6.0309    1.0366    1.6871 C   0  0  0  0  0  0  0  0  0  0  0  0
   -7.4202    0.8957    1.6330 C   0  0  0  0  0  0  0  0  0  0  0  0
   -8.1974    1.0859    2.7838 C   0  0  0  0  0  0  0  0  0  0  0  0
   -9.5845    0.9509    2.7414 C   0  0  0  0  0  0  0  0  0  0  0  0
  -10.2287    0.6219    1.5454 C   0  0  0  0  0  0  0  0  0  0  0  0
   -9.4576    0.4246    0.3741 C   0  0  0  0  0  0  0  0  0  0  0  0
  -10.1095    0.0918   -0.8329 C   0  0  0  0  0  0  0  0  0  0  0  0
  -11.5063   -0.0382   -0.8598 C   0  0  0  0  0  0  0  0  0  0  0  0
  -12.2590    0.1581    0.2958 C   0  0  0  0  0  0  0  0  0  0  0  0
  -11.6237    0.4859    1.4914 C   0  0  0  0  0  0  0  0  0  0  0  0
   -9.3449   -0.1020   -1.9828 C   0  0  0  0  0  0  0  0  0  0  0  0
   -7.9537    0.0323   -1.9437 C   0  0  0  0  0  0  0  0  0  0  0  0
   -7.2573    0.3665   -0.7584 C   0  0  0  0  0  0  0  0  0  0  0  0
   -8.0410    0.5608    0.4101 C   0  0  0  0  0  0  0  0  0  0  0  0
   -0.9565    2.3146   -0.5153 C   0  0  0  0  0  0  0  0  0  0  0  0
   -1.7079    3.4728   -0.8428 C   0  0  0  0  0  0  0  0  0  0  0  0
   -1.1053    4.7182   -1.0345 C   0  0  0  0  0  0  0  0  0  0  0  0
    0.2691    4.8443   -0.9048 C   0  0  0  0  0  0  0  0  0  0  0  0
    1.0343    3.7251   -0.5839 C   0  0  0  0  0  0  0  0  0  0  0  0
    0.4370    2.4664   -0.3886 C   0  0  0  0  0  0  0  0  0  0  0  0
    1.2281    1.3554   -0.0666 C   0  0  0  0  0  0  0  0  0  0  0  0
    0.7018    0.0599    0.1450 C   0  0  0  0  0  0  0  0  0  0  0  0
    3.5703   -0.5717    1.8381 C   0  0  0  0  0  0  0  0  0  0  0  0
    4.9545   -0.4036    1.9539 C   0  0  0  0  0  0  0  0  0  0  0  0
    5.8302   -0.5445    0.8483 C   0  0  0  0  0  0  0  0  0  0  0  0
    8.1927   -1.0225   -2.6393 C   0  0  0  0  0  0  0  0  0  0  0  0
    9.5775   -0.8645   -2.6012 C   0  0  0  0  0  0  0  0  0  0  0  0
   13.3295    0.0574   -0.1279 H   0  0  0  0  0  0  0  0  0  0  0  0
   12.2161   -0.5064   -2.2514 H   0  0  0  0  0  0  0  0  0  0  0  0
   12.0126    0.3454    1.9336 H   0  0  0  0  0  0  0  0  0  0  0  0
    9.8203    0.3490    3.0877 H   0  0  0  0  0  0  0  0  0  0  0  0
    7.4260    0.0820    3.0456 H   0  0  0  0  0  0  0  0  0  0  0  0
    5.5602   -1.2732   -2.4830 H   0  0  0  0  0  0  0  0  0  0  0  0
    3.3968   -1.2866   -1.4626 H   0  0  0  0  0  0  0  0  0  0  0  0
    2.7938   -3.4653    1.1102 H   0  0  0  0  0  0  0  0  0  0  0  0
    1.7168   -5.6314    1.4377 H   0  0  0  0  0  0  0  0  0  0  0  0
   -0.7463   -5.8536    1.2107 H   0  0  0  0  0  0  0  0  0  0  0  0
   -2.1089   -3.8851    0.6520 H   0  0  0  0  0  0  0  0  0  0  0  0
   -2.2977   -1.5579    0.1457 H   0  0  0  0  0  0  0  0  0  0  0  0
   -2.9361    0.3723   -2.5462 H   0  0  0  0  0  0  0  0  0  0  0  0
   -5.3295    0.0886   -2.7689 H   0  0  0  0  0  0  0  0  0  0  0  0
   -3.3948    1.2753    1.6209 H   0  0  0  0  0  0  0  0  0  0  0  0
   -5.5606    1.2961    2.6348 H   0  0  0  0  0  0  0  0  0  0  0  0
   -7.7276    1.3436    3.7309 H   0  0  0  0  0  0  0  0  0  0  0  0
  -10.1564    1.1061    3.6535 H   0  0  0  0  0  0  0  0  0  0  0  0
  -12.0198   -0.2934   -1.7843 H   0  0  0  0  0  0  0  0  0  0  0  0
  -13.3406    0.0560    0.2645 H   0  0  0  0  0  0  0  0  0  0  0  0
  -12.2275    0.6358    2.3836 H   0  0  0  0  0  0  0  0  0  0  0  0
   -9.8209   -0.3595   -2.9264 H   0  0  0  0  0  0  0  0  0  0  0  0
   -7.4211   -0.1317   -2.8761 H   0  0  0  0  0  0  0  0  0  0  0  0
   -2.7894    3.4163   -0.9536 H   0  0  0  0  0  0  0  0  0  0  0  0
   -1.7143    5.5829   -1.2847 H   0  0  0  0  0  0  0  0  0  0  0  0
    0.7470    5.8088   -1.0527 H   0  0  0  0  0  0  0  0  0  0  0  0
    2.1122    3.8425   -0.4864 H   0  0  0  0  0  0  0  0  0  0  0  0
    2.3031    1.5141    0.0212 H   0  0  0  0  0  0  0  0  0  0  0  0
    2.9430   -0.4513    2.7191 H   0  0  0  0  0  0  0  0  0  0  0  0
    5.3355   -0.1564    2.9406 H   0  0  0  0  0  0  0  0  0  0  0  0
    7.7226   -1.2714   -3.5885 H   0  0  0  0  0  0  0  0  0  0  0  0
   10.1472   -0.9942   -3.5185 H   0  0  0  0  0  0  0  0  0  0  0  0
  1  2  4  0
  2  3  4  0
  3  4  4  0
  4  5  4  0
  5  6  4  0
  5  7  4  0
  7  8  4  0
  8  9  4  0
  9 10  4  0
 10 11  4  0
 11 12  4  0
 12 13  4  0
 13 14  4  0
 14 15  4  0
 15 16  1  0
 16 17  4  0
 17 18  4  0
 18 19  4  0
 19 20  4  0
 20 21  4  0
 21 22  4  0
 22 23  4  0
 23 24  4  0
 24 25  4  0
 25 26  1  0
 26 27  4  0
 27 28  4  0
 28 29  4  0
 29 30  4  0
 30 31  4  0
 30 32  4  0
 32 33  4  0
 33 34  4  0
 34 35  4  0
 35 36  4  0
 36 37  4  0
 37 38  4  0
 38 39  4  0
 39 40  4  0
 40 41  4  0
 38 42  4  0
 42 43  4  0
 43 44  4  0
 44 45  4  0
 25 46  4  0
 46 47  4  0
 47 48  4  0
 48 49  4  0
 49 50  4  0
 50 51  4  0
 51 52  4  0
 52 53  4  0
 15 54  4  0
 54 55  4  0
 55 56  4  0
 11 57  4  0
 57 58  4  0
  6  1  4  0
 56  9  4  0
 58  3  4  0
 10  4  4  0
 56 13  4  0
 53 16  4  0
 22 17  4  0
 53 24  4  0
 31 26  4  0
 45 33  4  0
 51 46  4  0
 44 29  4  0
 41 36  4  0
 45 37  4  0
  1 59  1  0
  2 60  1  0
  6 61  1  0
  7 62  1  0
  8 63  1  0
 12 64  1  0
 14 65  1  0
 18 66  1  0
 19 67  1  0
 20 68  1  0
 21 69  1  0
 23 70  1  0
 27 71  1  0
 28 72  1  0
 31 73  1  0
 32 74  1  0
 34 75  1  0
 35 76  1  0
 39 77  1  0
 40 78  1  0
 41 79  1  0
 42 80  1  0
 43 81  1  0
 47 82  1  0
 48 83  1  0
 49 84  1  0
 50 85  1  0
 52 86  1  0
 54 87  1  0
 55 88  1  0
 57 89  1  0
 58 90  1  0
M  END
