
     RDKit          3D

 62 69  0  0  0  0  0  0  0  0999 V2000
   -7.9500    1.0334    0.6921 C   0  0  0  0  0  0  0  0  0  0  0  0
   -7.2161   -0.1443    0.8435 C   0  0  0  0  0  0  0  0  0  0  0  0
   -5.8568   -0.1921    0.4948 C   0  0  0  0  0  0  0  0  0  0  0  0
   -5.1056   -1.3681    0.6394 C   0  0  0  0  0  0  0  0  0  0  0  0
   -3.7551   -1.4000    0.2840 C   0  0  0  0  0  0  0  0  0  0  0  0
   -3.1232   -0.2566   -0.2226 C   0  0  0  0  0  0  0  0  0  0  0  0
   -1.6931   -0.2904   -0.6047 C   0  0  0  0  0  0  0  0  0  0  0  0
   -1.3372   -0.6320   -1.9469 C   0  0  0  0  0  0  0  0  0  0  0  0
   -2.2747   -0.9499   -2.9639 C   0  0  0  0  0  0  0  0  0  0  0  0
   -1.8780   -1.2781   -4.2622 C   0  0  0  0  0  0  0  0  0  0  0  0
   -0.5296   -1.2988   -4.5842 C   0  0  0  0  0  0  0  0  0  0  0  0
    0.4147   -0.9909   -3.6074 C   0  0  0  0  0  0  0  0  0  0  0  0
    0.0254   -0.6591   -2.2972 C   0  0  0  0  0  0  0  0  0  0  0  0
    0.9947   -0.3538   -1.3324 C   0  0  0  0  0  0  0  0  0  0  0  0
    0.6831   -0.0126    0.0038 C   0  0  0  0  0  0  0  0  0  0  0  0
    1.6944    0.2947    0.9763 C   0  0  0  0  0  0  0  0  0  0  0  0
    3.1248    0.2613    0.5937 C   0  0  0  0  0  0  0  0  0  0  0  0
    3.7630    1.4116    0.1110 C   0  0  0  0  0  0  0  0  0  0  0  0
    5.1138    1.3803   -0.2443 C   0  0  0  0  0  0  0  0  0  0  0  0
    5.8588    0.1975   -0.1253 C   0  0  0  0  0  0  0  0  0  0  0  0
    7.2181    0.1495   -0.4755 C   0  0  0  0  0  0  0  0  0  0  0  0
    7.9454   -1.0353   -0.3508 C   0  0  0  0  0  0  0  0  0  0  0  0
    7.3236   -2.1861    0.1247 C   0  0  0  0  0  0  0  0  0  0  0  0
    5.9735   -2.1549    0.4771 C   0  0  0  0  0  0  0  0  0  0  0  0
    5.2280   -0.9710    0.3586 C   0  0  0  0  0  0  0  0  0  0  0  0
    3.8692   -0.9240    0.7121 C   0  0  0  0  0  0  0  0  0  0  0  0
    1.3384    0.6329    2.3193 C   0  0  0  0  0  0  0  0  0  0  0  0
    2.2766    0.9438    3.3373 C   0  0  0  0  0  0  0  0  0  0  0  0
    1.8808    1.2682    4.6368 C   0  0  0  0  0  0  0  0  0  0  0  0
    0.5327    1.2923    4.9589 C   0  0  0  0  0  0  0  0  0  0  0  0
   -0.4129    0.9918    3.9810 C   0  0  0  0  0  0  0  0  0  0  0  0
   -0.0244    0.6628    2.6695 C   0  0  0  0  0  0  0  0  0  0  0  0
   -0.9941    0.3613    1.7038 C   0  0  0  0  0  0  0  0  0  0  0  0
   -0.6821    0.0188    0.3678 C   0  0  0  0  0  0  0  0  0  0  0  0
   -3.8733    0.9222   -0.3657 C   0  0  0  0  0  0  0  0  0  0  0  0
   -5.2324    0.9692   -0.0141 C   0  0  0  0  0  0  0  0  0  0  0  0
   -5.9844    2.1459   -0.1594 C   0  0  0  0  0  0  0  0  0  0  0  0
   -7.3348    2.1770    0.1916 C   0  0  0  0  0  0  0  0  0  0  0  0
   -9.0017    1.0563    0.9651 H   0  0  0  0  0  0  0  0  0  0  0  0
   -7.7148   -1.0276    1.2360 H   0  0  0  0  0  0  0  0  0  0  0  0
   -5.5671   -2.2724    1.0295 H   0  0  0  0  0  0  0  0  0  0  0  0
   -3.1937   -2.3248    0.4022 H   0  0  0  0  0  0  0  0  0  0  0  0
   -3.3423   -0.9452   -2.7512 H   0  0  0  0  0  0  0  0  0  0  0  0
   -2.6252   -1.5161   -5.0145 H   0  0  0  0  0  0  0  0  0  0  0  0
   -0.2099   -1.5535   -5.5908 H   0  0  0  0  0  0  0  0  0  0  0  0
    1.4687   -1.0119   -3.8780 H   0  0  0  0  0  0  0  0  0  0  0  0
    2.0388   -0.3857   -1.6432 H   0  0  0  0  0  0  0  0  0  0  0  0
    3.2065    2.3416    0.0120 H   0  0  0  0  0  0  0  0  0  0  0  0
    5.5805    2.2904   -0.6143 H   0  0  0  0  0  0  0  0  0  0  0  0
    7.7215    1.0385   -0.8488 H   0  0  0  0  0  0  0  0  0  0  0  0
    8.9969   -1.0584   -0.6248 H   0  0  0  0  0  0  0  0  0  0  0  0
    7.8880   -3.1096    0.2230 H   0  0  0  0  0  0  0  0  0  0  0  0
    5.5046   -3.0644    0.8461 H   0  0  0  0  0  0  0  0  0  0  0  0
    3.3768   -1.8197    1.0880 H   0  0  0  0  0  0  0  0  0  0  0  0
    3.3443    0.9352    3.1252 H   0  0  0  0  0  0  0  0  0  0  0  0
    2.6287    1.4997    5.3902 H   0  0  0  0  0  0  0  0  0  0  0  0
    0.2150    1.5432    5.9671 H   0  0  0  0  0  0  0  0  0  0  0  0
   -1.4670    1.0154    4.2518 H   0  0  0  0  0  0  0  0  0  0  0  0
   -2.0384    0.3958    2.0139 H   0  0  0  0  0  0  0  0  0  0  0  0
   -3.3854    1.8123   -0.7602 H   0  0  0  0  0  0  0  0  0  0  0  0
   -5.5215    3.0497   -0.5496 H   0  0  0  0  0  0  0  0  0  0  0  0
   -7.9048    3.0947    0.0728 H   0  0  0  0  0  0  0  0  0  0  0  0
  1  2  4  0
  2  3  4  0
  3  4  4  0
  4  5  4  0
  5  6  4  0
  6  7  1  0
  7  8  4  0
  8  9  4  0
  9 10  4  0
 10 11  4  0
 11 12  4  0
 12 13  4  0
 13 14  4  0
 14 15  4  0
 15 16  4  0
 16 17  1  0
 17 18  4  0
 18 19  4  0
 19 20  4  0
 20 21  4  0
 21 22  4  0
 22 23  4  0
 23 24  4  0
 24 25  4  0
 25 26  4  0
 16 27  4  0
 27 28  4  0
 28 29  4  0
 29 30  4  0
 30 31  4  0
 31 32  4  0
 32 33  4  0
 33 34  4  0
  6 35  4  0
 35 36  4  0
 36 37  4  0
 37 38  4  0
 38  1  4  0
 36  3  4  0
 34  7  4  0
 13  8  4  0
 34 15  4  0
 26 17  4  0
 32 27  4  0
 25 20  4  0
  1 39  1  0
  2 40  1  0
  4 41  1  0
  5 42  1  0
  9 43  1  0
 10 44  1  0
 11 45  1  0
 12 46  1  0
 14 47  1  0
 18 48  1  0
 19 49  1  0
 21 50  1  0
 22 51  1  0
 23 52  1  0
 24 53  1  0
 26 54  1  0
 28 55  1  0
 29 56  1  0
 30 57  1  0
 31 58  1  0
 33 59  1  0
 35 60  1  0
 37 61  1  0
 38 62  1  0
M  END
