
     RDKit          3D

 74 83  0  0  0  0  0  0  0  0999 V2000
   -9.9364    2.1483    0.2012 C   0  0  0  0  0  0  0  0  0  0  0  0
   -9.3015    0.9203    0.0077 C   0  0  0  0  0  0  0  0  0  0  0  0
   -7.9117    0.8519   -0.1842 C   0  0  0  0  0  0  0  0  0  0  0  0
   -7.2586   -0.3760   -0.3817 C   0  0  0  0  0  0  0  0  0  0  0  0
   -5.8690   -0.4429   -0.5740 C   0  0  0  0  0  0  0  0  0  0  0  0
   -5.2174   -1.6695   -0.7735 C   0  0  0  0  0  0  0  0  0  0  0  0
   -3.8345   -1.7209   -0.9617 C   0  0  0  0  0  0  0  0  0  0  0  0
   -3.0700   -0.5472   -0.9531 C   0  0  0  0  0  0  0  0  0  0  0  0
   -1.6029   -0.6002   -1.1452 C   0  0  0  0  0  0  0  0  0  0  0  0
   -1.0657   -0.4931   -2.4659 C   0  0  0  0  0  0  0  0  0  0  0  0
   -1.8524   -0.3315   -3.6355 C   0  0  0  0  0  0  0  0  0  0  0  0
   -1.2800   -0.2285   -4.9054 C   0  0  0  0  0  0  0  0  0  0  0  0
    0.0983   -0.2854   -5.0454 C   0  0  0  0  0  0  0  0  0  0  0  0
    0.8973   -0.4450   -3.9157 C   0  0  0  0  0  0  0  0  0  0  0  0
    0.3305   -0.5490   -2.6326 C   0  0  0  0  0  0  0  0  0  0  0  0
    1.1559   -0.7085   -1.5119 C   0  0  0  0  0  0  0  0  0  0  0  0
    0.6635   -0.8138   -0.1905 C   0  0  0  0  0  0  0  0  0  0  0  0
    1.5299   -0.9724    0.9446 C   0  0  0  0  0  0  0  0  0  0  0  0
    2.9963   -1.0361    0.7491 C   0  0  0  0  0  0  0  0  0  0  0  0
    3.6406   -2.2672    0.5731 C   0  0  0  0  0  0  0  0  0  0  0  0
    5.0215   -2.3245    0.3719 C   0  0  0  0  0  0  0  0  0  0  0  0
    5.7910   -1.1515    0.3388 C   0  0  0  0  0  0  0  0  0  0  0  0
    7.1792   -1.1932    0.1287 C   0  0  0  0  0  0  0  0  0  0  0  0
    7.9488   -0.0187    0.0887 C   0  0  0  0  0  0  0  0  0  0  0  0
    9.3365   -0.0583   -0.1257 C   0  0  0  0  0  0  0  0  0  0  0  0
   10.0867    1.1180   -0.1667 C   0  0  0  0  0  0  0  0  0  0  0  0
    9.4601    2.3481    0.0072 C   0  0  0  0  0  0  0  0  0  0  0  0
    8.0824    2.4039    0.2229 C   0  0  0  0  0  0  0  0  0  0  0  0
    7.3135    1.2292    0.2661 C   0  0  0  0  0  0  0  0  0  0  0  0
    5.9259    1.2700    0.4802 C   0  0  0  0  0  0  0  0  0  0  0  0
    5.1563    0.0957    0.5173 C   0  0  0  0  0  0  0  0  0  0  0  0
    3.7669    0.1378    0.7238 C   0  0  0  0  0  0  0  0  0  0  0  0
    0.9932   -1.0699    2.2661 C   0  0  0  0  0  0  0  0  0  0  0  0
    1.7801   -1.2220    3.4368 C   0  0  0  0  0  0  0  0  0  0  0  0
    1.2080   -1.3125    4.7080 C   0  0  0  0  0  0  0  0  0  0  0  0
   -0.1702   -1.2535    4.8479 C   0  0  0  0  0  0  0  0  0  0  0  0
   -0.9695   -1.1035    3.7171 C   0  0  0  0  0  0  0  0  0  0  0  0
   -0.4030   -1.0113    2.4329 C   0  0  0  0  0  0  0  0  0  0  0  0
   -1.2290   -0.8592    1.3114 C   0  0  0  0  0  0  0  0  0  0  0  0
   -0.7367   -0.7572   -0.0100 C   0  0  0  0  0  0  0  0  0  0  0  0
   -3.7220    0.6809   -0.7558 C   0  0  0  0  0  0  0  0  0  0  0  0
   -5.1127    0.7478   -0.5665 C   0  0  0  0  0  0  0  0  0  0  0  0
   -5.7653    1.9758   -0.3695 C   0  0  0  0  0  0  0  0  0  0  0  0
   -7.1552    2.0434   -0.1789 C   0  0  0  0  0  0  0  0  0  0  0  0
   -7.8085    3.2713    0.0169 C   0  0  0  0  0  0  0  0  0  0  0  0
   -9.1904    3.3228    0.2057 C   0  0  0  0  0  0  0  0  0  0  0  0
  -11.0127    2.1863    0.3478 H   0  0  0  0  0  0  0  0  0  0  0  0
   -9.9020    0.0134    0.0070 H   0  0  0  0  0  0  0  0  0  0  0  0
   -7.8424   -1.2947   -0.3860 H   0  0  0  0  0  0  0  0  0  0  0  0
   -5.7827   -2.5989   -0.7842 H   0  0  0  0  0  0  0  0  0  0  0  0
   -3.3516   -2.6842   -1.1145 H   0  0  0  0  0  0  0  0  0  0  0  0
   -2.9378   -0.2821   -3.5682 H   0  0  0  0  0  0  0  0  0  0  0  0
   -1.9156   -0.1035   -5.7779 H   0  0  0  0  0  0  0  0  0  0  0  0
    0.5535   -0.2060   -6.0287 H   0  0  0  0  0  0  0  0  0  0  0  0
    1.9777   -0.4868   -4.0438 H   0  0  0  0  0  0  0  0  0  0  0  0
    2.2314   -0.7499   -1.6839 H   0  0  0  0  0  0  0  0  0  0  0  0
    3.0645   -3.1905    0.5891 H   0  0  0  0  0  0  0  0  0  0  0  0
    5.4916   -3.2961    0.2369 H   0  0  0  0  0  0  0  0  0  0  0  0
    7.6689   -2.1554   -0.0095 H   0  0  0  0  0  0  0  0  0  0  0  0
    9.8453   -1.0098   -0.2637 H   0  0  0  0  0  0  0  0  0  0  0  0
   11.1596    1.0723   -0.3342 H   0  0  0  0  0  0  0  0  0  0  0  0
   10.0427    3.2651   -0.0247 H   0  0  0  0  0  0  0  0  0  0  0  0
    7.6104    3.3748    0.3564 H   0  0  0  0  0  0  0  0  0  0  0  0
    5.4367    2.2327    0.6173 H   0  0  0  0  0  0  0  0  0  0  0  0
    3.2686    1.0967    0.8606 H   0  0  0  0  0  0  0  0  0  0  0  0
    2.8656   -1.2707    3.3697 H   0  0  0  0  0  0  0  0  0  0  0  0
    1.8436   -1.4274    5.5819 H   0  0  0  0  0  0  0  0  0  0  0  0
   -0.6250   -1.3225    5.8322 H   0  0  0  0  0  0  0  0  0  0  0  0
   -2.0495   -1.0578    3.8457 H   0  0  0  0  0  0  0  0  0  0  0  0
   -2.3045   -0.8171    1.4831 H   0  0  0  0  0  0  0  0  0  0  0  0
   -3.1303    1.5954   -0.7501 H   0  0  0  0  0  0  0  0  0  0  0  0
   -5.1814    2.8944   -0.3639 H   0  0  0  0  0  0  0  0  0  0  0  0
   -7.2422    4.2000    0.0230 H   0  0  0  0  0  0  0  0  0  0  0  0
   -9.6827    4.2801    0.3559 H   0  0  0  0  0  0  0  0  0  0  0  0
  1  2  4  0
  2  3  4  0
  3  4  4  0
  4  5  4  0
  5  6  4  0
  6  7  4  0
  7  8  4  0
  8  9  1  0
  9 10  4  0
 10 11  4  0
 11 12  4  0
 12 13  4  0
 13 14  4  0
 14 15  4  0
 15 16  4  0
 16 17  4  0
 17 18  4  0
 18 19  1  0
 19 20  4  0
 20 21  4  0
 21 22  4  0
 22 23  4  0
 23 24  4  0
 24 25  4  0
 25 26  4  0
 26 27  4  0
 27 28  4  0
 28 29  4  0
 29 30  4  0
 30 31  4  0
 31 32  4  0
 18 33  4  0
 33 34  4  0
 34 35  4  0
 35 36  4  0
 36 37  4  0
 37 38  4  0
 38 39  4  0
 39 40  4  0
  8 41  4  0
 41 42  4  0
 42 43  4  0
 43 44  4  0
 44 45  4  0
 45 46  4  0
 46  1  4  0
 44  3  4  0
 42  5  4  0
 40  9  4  0
 15 10  4  0
 40 17  4  0
 32 19  4  0
 38 33  4  0
 31 22  4  0
 29 24  4  0
  1 47  1  0
  2 48  1  0
  4 49  1  0
  6 50  1  0
  7 51  1  0
 11 52  1  0
 12 53  1  0
 13 54  1  0
 14 55  1  0
 16 56  1  0
 20 57  1  0
 21 58  1  0
 23 59  1  0
 25 60  1  0
 26 61  1  0
 27 62  1  0
 28 63  1  0
 30 64  1  0
 32 65  1  0
 34 66  1  0
 35 67  1  0
 36 68  1  0
 37 69  1  0
 39 70  1  0
 41 71  1  0
 43 72  1  0
 45 73  1  0
 46 74  1  0
M  END
