
     RDKit          3D

 74 83  0  0  0  0  0  0  0  0999 V2000
  -10.2931    0.0460   -0.8963 C   0  0  0  0  0  0  0  0  0  0  0  0
   -9.8908    1.3759   -0.9702 C   0  0  0  0  0  0  0  0  0  0  0  0
   -8.5591    1.7152   -0.7265 C   0  0  0  0  0  0  0  0  0  0  0  0
   -7.6122    0.7281   -0.4058 C   0  0  0  0  0  0  0  0  0  0  0  0
   -6.2684    1.0545   -0.1575 C   0  0  0  0  0  0  0  0  0  0  0  0
   -5.3221    0.0672    0.1637 C   0  0  0  0  0  0  0  0  0  0  0  0
   -3.9777    0.3942    0.4116 C   0  0  0  0  0  0  0  0  0  0  0  0
   -3.0322   -0.5938    0.7320 C   0  0  0  0  0  0  0  0  0  0  0  0
   -1.6182   -0.2331    0.9848 C   0  0  0  0  0  0  0  0  0  0  0  0
   -1.2051    0.0896    2.3154 C   0  0  0  0  0  0  0  0  0  0  0  0
   -2.0708    0.0947    3.4398 C   0  0  0  0  0  0  0  0  0  0  0  0
   -1.6195    0.4155    4.7224 C   0  0  0  0  0  0  0  0  0  0  0  0
   -0.2863    0.7405    4.9209 C   0  0  0  0  0  0  0  0  0  0  0  0
    0.5882    0.7452    3.8363 C   0  0  0  0  0  0  0  0  0  0  0  0
    0.1431    0.4249    2.5406 C   0  0  0  0  0  0  0  0  0  0  0  0
    1.0423    0.4379    1.4657 C   0  0  0  0  0  0  0  0  0  0  0  0
    0.6722    0.1279    0.1366 C   0  0  0  0  0  0  0  0  0  0  0  0
    1.6113    0.1492   -0.9504 C   0  0  0  0  0  0  0  0  0  0  0  0
    3.0253    0.5112   -0.7007 C   0  0  0  0  0  0  0  0  0  0  0  0
    3.9749   -0.4776   -0.3952 C   0  0  0  0  0  0  0  0  0  0  0  0
    5.3219   -0.1507   -0.1628 C   0  0  0  0  0  0  0  0  0  0  0  0
    6.2735   -1.1390    0.1392 C   0  0  0  0  0  0  0  0  0  0  0  0
    7.6204   -0.8125    0.3694 C   0  0  0  0  0  0  0  0  0  0  0  0
    8.5732   -1.8004    0.6694 C   0  0  0  0  0  0  0  0  0  0  0  0
    9.9077   -1.4605    0.8958 C   0  0  0  0  0  0  0  0  0  0  0  0
   10.3069   -0.1294    0.8254 C   0  0  0  0  0  0  0  0  0  0  0  0
    9.3723    0.8636    0.5277 C   0  0  0  0  0  0  0  0  0  0  0  0
    8.0256    0.5375    0.2970 C   0  0  0  0  0  0  0  0  0  0  0  0
    7.0737    1.5255   -0.0048 C   0  0  0  0  0  0  0  0  0  0  0  0
    5.7276    1.1984   -0.2359 C   0  0  0  0  0  0  0  0  0  0  0  0
    4.7783    2.1860   -0.5396 C   0  0  0  0  0  0  0  0  0  0  0  0
    3.4434    1.8463   -0.7700 C   0  0  0  0  0  0  0  0  0  0  0  0
    1.1982   -0.1743   -2.2808 C   0  0  0  0  0  0  0  0  0  0  0  0
    2.0636   -0.1787   -3.4055 C   0  0  0  0  0  0  0  0  0  0  0  0
    1.6131   -0.5018   -4.6876 C   0  0  0  0  0  0  0  0  0  0  0  0
    0.2810   -0.8303   -4.8855 C   0  0  0  0  0  0  0  0  0  0  0  0
   -0.5933   -0.8347   -3.8009 C   0  0  0  0  0  0  0  0  0  0  0  0
   -0.1492   -0.5117   -2.5056 C   0  0  0  0  0  0  0  0  0  0  0  0
   -1.0482   -0.5239   -1.4308 C   0  0  0  0  0  0  0  0  0  0  0  0
   -0.6784   -0.2125   -0.1018 C   0  0  0  0  0  0  0  0  0  0  0  0
   -3.4527   -1.9279    0.8040 C   0  0  0  0  0  0  0  0  0  0  0  0
   -4.7853   -2.2676    0.5593 C   0  0  0  0  0  0  0  0  0  0  0  0
   -5.7302   -1.2811    0.2384 C   0  0  0  0  0  0  0  0  0  0  0  0
   -7.0738   -1.6081   -0.0097 C   0  0  0  0  0  0  0  0  0  0  0  0
   -8.0204   -0.6209   -0.3308 C   0  0  0  0  0  0  0  0  0  0  0  0
   -9.3646   -0.9464   -0.5786 C   0  0  0  0  0  0  0  0  0  0  0  0
  -11.3299   -0.2205   -1.0850 H   0  0  0  0  0  0  0  0  0  0  0  0
  -10.6126    2.1503   -1.2165 H   0  0  0  0  0  0  0  0  0  0  0  0
   -8.2634    2.7603   -0.7878 H   0  0  0  0  0  0  0  0  0  0  0  0
   -5.9540    2.0951   -0.2152 H   0  0  0  0  0  0  0  0  0  0  0  0
   -3.6539    1.4327    0.3552 H   0  0  0  0  0  0  0  0  0  0  0  0
   -3.1242   -0.1554    3.3260 H   0  0  0  0  0  0  0  0  0  0  0  0
   -2.3134    0.4090    5.5587 H   0  0  0  0  0  0  0  0  0  0  0  0
    0.0754    0.9903    5.9145 H   0  0  0  0  0  0  0  0  0  0  0  0
    1.6314    1.0030    4.0104 H   0  0  0  0  0  0  0  0  0  0  0  0
    2.0776    0.7020    1.6813 H   0  0  0  0  0  0  0  0  0  0  0  0
    3.6533   -1.5170   -0.3421 H   0  0  0  0  0  0  0  0  0  0  0  0
    5.9612   -2.1803    0.1955 H   0  0  0  0  0  0  0  0  0  0  0  0
    8.2804   -2.8465    0.7280 H   0  0  0  0  0  0  0  0  0  0  0  0
   10.6342   -2.2353    1.1267 H   0  0  0  0  0  0  0  0  0  0  0  0
   11.3458    0.1374    1.0012 H   0  0  0  0  0  0  0  0  0  0  0  0
    9.7044    1.8982    0.4766 H   0  0  0  0  0  0  0  0  0  0  0  0
    7.3861    2.5664   -0.0618 H   0  0  0  0  0  0  0  0  0  0  0  0
    5.0711    3.2318   -0.6016 H   0  0  0  0  0  0  0  0  0  0  0  0
    2.7261    2.6298   -1.0068 H   0  0  0  0  0  0  0  0  0  0  0  0
    3.1164    0.0735   -3.2923 H   0  0  0  0  0  0  0  0  0  0  0  0
    2.3065   -0.4949   -5.5243 H   0  0  0  0  0  0  0  0  0  0  0  0
   -0.0801   -1.0828   -5.8785 H   0  0  0  0  0  0  0  0  0  0  0  0
   -1.6361   -1.0945   -3.9744 H   0  0  0  0  0  0  0  0  0  0  0  0
   -2.0831   -0.7894   -1.6465 H   0  0  0  0  0  0  0  0  0  0  0  0
   -2.7387   -2.7112    1.0511 H   0  0  0  0  0  0  0  0  0  0  0  0
   -5.0787   -3.3132    0.6214 H   0  0  0  0  0  0  0  0  0  0  0  0
   -7.3892   -2.6483    0.0485 H   0  0  0  0  0  0  0  0  0  0  0  0
   -9.6991   -1.9801   -0.5246 H   0  0  0  0  0  0  0  0  0  0  0  0
  1  2  4  0
  2  3  4  0
  3  4  4  0
  4  5  4  0
  5  6  4  0
  6  7  4  0
  7  8  4  0
  8  9  1  0
  9 10  4  0
 10 11  4  0
 11 12  4  0
 12 13  4  0
 13 14  4  0
 14 15  4  0
 15 16  4  0
 16 17  4  0
 17 18  4  0
 18 19  1  0
 19 20  4  0
 20 21  4  0
 21 22  4  0
 22 23  4  0
 23 24  4  0
 24 25  4  0
 25 26  4  0
 26 27  4  0
 27 28  4  0
 28 29  4  0
 29 30  4  0
 30 31  4  0
 31 32  4  0
 18 33  4  0
 33 34  4  0
 34 35  4  0
 35 36  4  0
 36 37  4  0
 37 38  4  0
 38 39  4  0
 39 40  4  0
  8 41  4  0
 41 42  4  0
 42 43  4  0
 43 44  4  0
 44 45  4  0
 45 46  4  0
 46  1  4  0
 45  4  4  0
 43  6  4  0
 40  9  4  0
 15 10  4  0
 40 17  4  0
 32 19  4  0
 38 33  4  0
 30 21  4  0
 28 23  4  0
  1 47  1  0
  2 48  1  0
  3 49  1  0
  5 50  1  0
  7 51  1  0
 11 52  1  0
 12 53  1  0
 13 54  1  0
 14 55  1  0
 16 56  1  0
 20 57  1  0
 22 58  1  0
 24 59  1  0
 25 60  1  0
 26 61  1  0
 27 62  1  0
 29 63  1  0
 31 64  1  0
 32 65  1  0
 34 66  1  0
 35 67  1  0
 36 68  1  0
 37 69  1  0
 39 70  1  0
 41 71  1  0
 42 72  1  0
 44 73  1  0
 46 74  1  0
M  END
