
     RDKit          3D

 94107  0  0  0  0  0  0  0  0999 V2000
   13.8597   -3.7611    0.5661 C   0  0  0  0  0  0  0  0  0  0  0  0
   13.1007   -4.9257    0.4983 C   0  0  0  0  0  0  0  0  0  0  0  0
   11.7185   -4.8477    0.3227 C   0  0  0  0  0  0  0  0  0  0  0  0
   11.0796   -3.6017    0.2128 C   0  0  0  0  0  0  0  0  0  0  0  0
    9.6917   -3.4981    0.0357 C   0  0  0  0  0  0  0  0  0  0  0  0
    9.0580   -2.2672   -0.0733 C   0  0  0  0  0  0  0  0  0  0  0  0
    7.7243   -2.2216   -0.2429 N   0  0  0  0  0  0  0  0  0  0  0  0
    7.1511   -1.0086   -0.3451 C   0  0  0  0  0  0  0  0  0  0  0  0
    5.7774   -0.9129   -0.5223 C   0  0  0  0  0  0  0  0  0  0  0  0
    5.1312    0.3277   -0.6290 C   0  0  0  0  0  0  0  0  0  0  0  0
    3.7409    0.4200   -0.8050 C   0  0  0  0  0  0  0  0  0  0  0  0
    3.1006    1.6662   -0.9026 C   0  0  0  0  0  0  0  0  0  0  0  0
    1.6329    1.7457   -1.0765 C   0  0  0  0  0  0  0  0  0  0  0  0
    1.0863    1.7996   -2.3966 C   0  0  0  0  0  0  0  0  0  0  0  0
    1.8637    1.7847   -3.5833 C   0  0  0  0  0  0  0  0  0  0  0  0
    1.2821    1.8397   -4.8523 C   0  0  0  0  0  0  0  0  0  0  0  0
   -0.0965    1.9092   -4.9740 C   0  0  0  0  0  0  0  0  0  0  0  0
   -0.8867    1.9241   -3.8272 C   0  0  0  0  0  0  0  0  0  0  0  0
   -0.3109    1.8699   -2.5452 C   0  0  0  0  0  0  0  0  0  0  0  0
   -1.1285    1.8824   -1.4079 C   0  0  0  0  0  0  0  0  0  0  0  0
   -0.6265    1.8239   -0.0872 C   0  0  0  0  0  0  0  0  0  0  0  0
   -1.4854    1.8260    1.0643 C   0  0  0  0  0  0  0  0  0  0  0  0
   -2.9536    1.8823    0.8865 C   0  0  0  0  0  0  0  0  0  0  0  0
   -3.6977    0.7025    0.7235 C   0  0  0  0  0  0  0  0  0  0  0  0
   -5.0879    0.7400    0.5287 C   0  0  0  0  0  0  0  0  0  0  0  0
   -5.8372   -0.4330    0.3547 C   0  0  0  0  0  0  0  0  0  0  0  0
   -7.2107   -0.3996    0.1542 C   0  0  0  0  0  0  0  0  0  0  0  0
   -7.8859   -1.5518   -0.0104 N   0  0  0  0  0  0  0  0  0  0  0  0
   -9.2154   -1.4726   -0.2027 C   0  0  0  0  0  0  0  0  0  0  0  0
   -9.9530   -2.6365   -0.3764 C   0  0  0  0  0  0  0  0  0  0  0  0
  -11.3410   -2.6089   -0.5802 C   0  0  0  0  0  0  0  0  0  0  0  0
  -12.0847   -3.7875   -0.7557 C   0  0  0  0  0  0  0  0  0  0  0  0
  -13.4647   -3.7351   -0.9567 C   0  0  0  0  0  0  0  0  0  0  0  0
  -14.1171   -2.5061   -0.9849 C   0  0  0  0  0  0  0  0  0  0  0  0
  -13.3907   -1.3271   -0.8119 C   0  0  0  0  0  0  0  0  0  0  0  0
  -12.0014   -1.3648   -0.6087 C   0  0  0  0  0  0  0  0  0  0  0  0
  -11.2502   -0.1929   -0.4325 C   0  0  0  0  0  0  0  0  0  0  0  0
   -9.8765   -0.2275   -0.2314 C   0  0  0  0  0  0  0  0  0  0  0  0
   -9.2011    0.9248   -0.0675 N   0  0  0  0  0  0  0  0  0  0  0  0
   -7.8721    0.8451    0.1260 C   0  0  0  0  0  0  0  0  0  0  0  0
   -7.1365    2.0097    0.3011 C   0  0  0  0  0  0  0  0  0  0  0  0
   -5.7489    1.9829    0.5022 C   0  0  0  0  0  0  0  0  0  0  0  0
   -5.0079    3.1618    0.6738 C   0  0  0  0  0  0  0  0  0  0  0  0
   -3.6253    3.1114    0.8627 C   0  0  0  0  0  0  0  0  0  0  0  0
   -0.9403    1.7647    2.3841 C   0  0  0  0  0  0  0  0  0  0  0  0
   -1.7204    1.7554    3.5692 C   0  0  0  0  0  0  0  0  0  0  0  0
   -1.1400    1.6930    4.8383 C   0  0  0  0  0  0  0  0  0  0  0  0
    0.2394    1.6382    4.9612 C   0  0  0  0  0  0  0  0  0  0  0  0
    1.0317    1.6452    3.8158 C   0  0  0  0  0  0  0  0  0  0  0  0
    0.4576    1.7067    2.5335 C   0  0  0  0  0  0  0  0  0  0  0  0
    1.2768    1.7068    1.3967 C   0  0  0  0  0  0  0  0  0  0  0  0
    0.7752    1.7591    0.0757 C   0  0  0  0  0  0  0  0  0  0  0  0
    3.8765    2.8300   -0.8262 C   0  0  0  0  0  0  0  0  0  0  0  0
    5.2602    2.7515   -0.6551 C   0  0  0  0  0  0  0  0  0  0  0  0
    5.8984    1.5060   -0.5548 C   0  0  0  0  0  0  0  0  0  0  0  0
    7.2862    1.4025   -0.3800 C   0  0  0  0  0  0  0  0  0  0  0  0
    7.9195    0.1713   -0.2743 C   0  0  0  0  0  0  0  0  0  0  0  0
    9.2531    0.1258   -0.1048 N   0  0  0  0  0  0  0  0  0  0  0  0
    9.8269   -1.0873   -0.0044 C   0  0  0  0  0  0  0  0  0  0  0  0
   11.2014   -1.1827    0.1705 C   0  0  0  0  0  0  0  0  0  0  0  0
   11.8481   -2.4230    0.2814 C   0  0  0  0  0  0  0  0  0  0  0  0
   13.2381   -2.5163    0.4584 C   0  0  0  0  0  0  0  0  0  0  0  0
   14.9365   -3.8204    0.7029 H   0  0  0  0  0  0  0  0  0  0  0  0
   13.5838   -5.8959    0.5820 H   0  0  0  0  0  0  0  0  0  0  0  0
   11.1423   -5.7694    0.2718 H   0  0  0  0  0  0  0  0  0  0  0  0
    9.0798   -4.3959   -0.0199 H   0  0  0  0  0  0  0  0  0  0  0  0
    5.2027   -1.8353   -0.5754 H   0  0  0  0  0  0  0  0  0  0  0  0
    3.1397   -0.4868   -0.8642 H   0  0  0  0  0  0  0  0  0  0  0  0
    2.9495    1.7281   -3.5311 H   0  0  0  0  0  0  0  0  0  0  0  0
    1.9104    1.8270   -5.7388 H   0  0  0  0  0  0  0  0  0  0  0  0
   -0.5603    1.9503   -5.9557 H   0  0  0  0  0  0  0  0  0  0  0  0
   -1.9678    1.9776   -3.9422 H   0  0  0  0  0  0  0  0  0  0  0  0
   -2.2054    1.9381   -1.5666 H   0  0  0  0  0  0  0  0  0  0  0  0
   -3.1772   -0.2547    0.7422 H   0  0  0  0  0  0  0  0  0  0  0  0
   -5.3455   -1.4035    0.3721 H   0  0  0  0  0  0  0  0  0  0  0  0
   -9.4247   -3.5873   -0.3508 H   0  0  0  0  0  0  0  0  0  0  0  0
  -11.5925   -4.7577   -0.7368 H   0  0  0  0  0  0  0  0  0  0  0  0
  -14.0293   -4.6543   -1.0913 H   0  0  0  0  0  0  0  0  0  0  0  0
  -15.1920   -2.4639   -1.1414 H   0  0  0  0  0  0  0  0  0  0  0  0
  -13.9185   -0.3759   -0.8371 H   0  0  0  0  0  0  0  0  0  0  0  0
  -11.7413    0.7777   -0.4506 H   0  0  0  0  0  0  0  0  0  0  0  0
   -7.6669    2.9593    0.2770 H   0  0  0  0  0  0  0  0  0  0  0  0
   -5.5005    4.1321    0.6576 H   0  0  0  0  0  0  0  0  0  0  0  0
   -3.0688    4.0386    0.9879 H   0  0  0  0  0  0  0  0  0  0  0  0
   -2.8066    1.7953    3.5150 H   0  0  0  0  0  0  0  0  0  0  0  0
   -1.7690    1.6860    5.7242 H   0  0  0  0  0  0  0  0  0  0  0  0
    0.7007    1.5891    5.9437 H   0  0  0  0  0  0  0  0  0  0  0  0
    2.1131    1.6001    3.9321 H   0  0  0  0  0  0  0  0  0  0  0  0
    2.3541    1.6613    1.5559 H   0  0  0  0  0  0  0  0  0  0  0  0
    3.4015    3.8067   -0.8995 H   0  0  0  0  0  0  0  0  0  0  0  0
    5.8351    3.6736   -0.5986 H   0  0  0  0  0  0  0  0  0  0  0  0
    7.8989    2.2997   -0.3216 H   0  0  0  0  0  0  0  0  0  0  0  0
   11.7769   -0.2609    0.2206 H   0  0  0  0  0  0  0  0  0  0  0  0
   13.8482   -1.6171    0.5137 H   0  0  0  0  0  0  0  0  0  0  0  0
  1  2  4  0
  2  3  4  0
  3  4  4  0
  4  5  4  0
  5  6  4  0
  6  7  4  0
  7  8  4  0
  8  9  4  0
  9 10  4  0
 10 11  4  0
 11 12  4  0
 12 13  1  0
 13 14  4  0
 14 15  4  0
 15 16  4  0
 16 17  4  0
 17 18  4  0
 18 19  4  0
 19 20  4  0
 20 21  4  0
 21 22  4  0
 22 23  1  0
 23 24  4  0
 24 25  4  0
 25 26  4  0
 26 27  4  0
 27 28  4  0
 28 29  4  0
 29 30  4  0
 30 31  4  0
 31 32  4  0
 32 33  4  0
 33 34  4  0
 34 35  4  0
 35 36  4  0
 36 37  4  0
 37 38  4  0
 38 39  4  0
 39 40  4  0
 40 41  4  0
 41 42  4  0
 42 43  4  0
 43 44  4  0
 22 45  4  0
 45 46  4  0
 46 47  4  0
 47 48  4  0
 48 49  4  0
 49 50  4  0
 50 51  4  0
 51 52  4  0
 12 53  4  0
 53 54  4  0
 54 55  4  0
 55 56  4  0
 56 57  4  0
 57 58  4  0
 58 59  4  0
 59 60  4  0
 60 61  4  0
 61 62  4  0
 62  1  4  0
 61  4  4  0
 59  6  4  0
 57  8  4  0
 55 10  4  0
 52 13  4  0
 19 14  4  0
 52 21  4  0
 44 23  4  0
 50 45  4  0
 42 25  4  0
 40 27  4  0
 38 29  4  0
 36 31  4  0
  1 63  1  0
  2 64  1  0
  3 65  1  0
  5 66  1  0
  9 67  1  0
 11 68  1  0
 15 69  1  0
 16 70  1  0
 17 71  1  0
 18 72  1  0
 20 73  1  0
 24 74  1  0
 26 75  1  0
 30 76  1  0
 32 77  1  0
 33 78  1  0
 34 79  1  0
 35 80  1  0
 37 81  1  0
 41 82  1  0
 43 83  1  0
 44 84  1  0
 46 85  1  0
 47 86  1  0
 48 87  1  0
 49 88  1  0
 51 89  1  0
 53 90  1  0
 54 91  1  0
 56 92  1  0
 60 93  1  0
 62 94  1  0
M  END
