
     RDKit          3D

 90103  0  0  0  0  0  0  0  0999 V2000
    5.7564    6.9063    1.4984 C   0  0  0  0  0  0  0  0  0  0  0  0
    6.3685    5.6858    1.2093 C   0  0  0  0  0  0  0  0  0  0  0  0
    5.6252    4.5204    1.0643 C   0  0  0  0  0  0  0  0  0  0  0  0
    6.2486    3.3609    0.7840 N   0  0  0  0  0  0  0  0  0  0  0  0
    5.4868    2.2613    0.6525 C   0  0  0  0  0  0  0  0  0  0  0  0
    6.0856    1.0471    0.3577 C   0  0  0  0  0  0  0  0  0  0  0  0
    5.3473   -0.1145    0.2029 C   0  0  0  0  0  0  0  0  0  0  0  0
    5.9675   -1.2673   -0.1028 N   0  0  0  0  0  0  0  0  0  0  0  0
    5.2033   -2.3624   -0.2685 C   0  0  0  0  0  0  0  0  0  0  0  0
    5.8210   -3.5554   -0.6178 C   0  0  0  0  0  0  0  0  0  0  0  0
    5.0884   -4.7194   -0.8306 C   0  0  0  0  0  0  0  0  0  0  0  0
    3.7086   -4.6890   -0.6859 C   0  0  0  0  0  0  0  0  0  0  0  0
    3.0544   -3.4976   -0.3190 C   0  0  0  0  0  0  0  0  0  0  0  0
    1.5728   -3.5073   -0.1679 C   0  0  0  0  0  0  0  0  0  0  0  0
    0.9966   -4.0295    1.0334 C   0  0  0  0  0  0  0  0  0  0  0  0
    1.7477   -4.5241    2.1317 C   0  0  0  0  0  0  0  0  0  0  0  0
    1.1370   -5.0275    3.2823 C   0  0  0  0  0  0  0  0  0  0  0  0
   -0.2456   -5.0501    3.3735 C   0  0  0  0  0  0  0  0  0  0  0  0
   -1.0107   -4.5657    2.3155 C   0  0  0  0  0  0  0  0  0  0  0  0
   -0.4055   -4.0554    1.1525 C   0  0  0  0  0  0  0  0  0  0  0  0
   -1.1996   -3.5627    0.1085 C   0  0  0  0  0  0  0  0  0  0  0  0
   -0.6698   -3.0184   -1.0838 C   0  0  0  0  0  0  0  0  0  0  0  0
   -1.5041   -2.5008   -2.1337 C   0  0  0  0  0  0  0  0  0  0  0  0
   -2.9856   -2.5889   -2.0223 C   0  0  0  0  0  0  0  0  0  0  0  0
   -3.7390   -1.5977   -1.3609 C   0  0  0  0  0  0  0  0  0  0  0  0
   -3.1553   -0.5223   -0.7806 N   0  0  0  0  0  0  0  0  0  0  0  0
   -3.9356    0.3765   -0.1557 C   0  0  0  0  0  0  0  0  0  0  0  0
   -3.3672    1.4822    0.4589 C   0  0  0  0  0  0  0  0  0  0  0  0
   -4.1334    2.4325    1.1176 C   0  0  0  0  0  0  0  0  0  0  0  0
   -3.5388    3.4871    1.7047 N   0  0  0  0  0  0  0  0  0  0  0  0
   -4.3272    4.3810    2.3298 C   0  0  0  0  0  0  0  0  0  0  0  0
   -3.7590    5.4879    2.9496 C   0  0  0  0  0  0  0  0  0  0  0  0
   -4.5447    6.4354    3.6074 C   0  0  0  0  0  0  0  0  0  0  0  0
   -5.9232    6.2733    3.6460 C   0  0  0  0  0  0  0  0  0  0  0  0
   -6.5027    5.1652    3.0262 C   0  0  0  0  0  0  0  0  0  0  0  0
   -5.7284    4.2163    2.3687 C   0  0  0  0  0  0  0  0  0  0  0  0
   -6.3218    3.1601    1.7823 N   0  0  0  0  0  0  0  0  0  0  0  0
   -5.5310    2.2695    1.1589 C   0  0  0  0  0  0  0  0  0  0  0  0
   -6.0977    1.1651    0.5442 C   0  0  0  0  0  0  0  0  0  0  0  0
   -5.3298    0.2153   -0.1097 C   0  0  0  0  0  0  0  0  0  0  0  0
   -5.9271   -0.8407   -0.6848 N   0  0  0  0  0  0  0  0  0  0  0  0
   -5.1442   -1.7439   -1.3007 C   0  0  0  0  0  0  0  0  0  0  0  0
   -5.7520   -2.8466   -1.8847 C   0  0  0  0  0  0  0  0  0  0  0  0
   -5.0111   -3.8281   -2.5343 C   0  0  0  0  0  0  0  0  0  0  0  0
   -3.6319   -3.6995   -2.6015 C   0  0  0  0  0  0  0  0  0  0  0  0
   -0.9258   -1.9384   -3.3159 C   0  0  0  0  0  0  0  0  0  0  0  0
   -1.6739   -1.3756   -4.3819 C   0  0  0  0  0  0  0  0  0  0  0  0
   -1.0620   -0.8489   -5.5221 C   0  0  0  0  0  0  0  0  0  0  0  0
    0.3193   -0.8669   -5.6321 C   0  0  0  0  0  0  0  0  0  0  0  0
    1.0821   -1.4082   -4.6006 C   0  0  0  0  0  0  0  0  0  0  0  0
    0.4748   -1.9383   -3.4476 C   0  0  0  0  0  0  0  0  0  0  0  0
    1.2662   -2.4689   -2.4215 C   0  0  0  0  0  0  0  0  0  0  0  0
    0.7371   -2.9989   -1.2220 C   0  0  0  0  0  0  0  0  0  0  0  0
    3.7993   -2.3207   -0.1098 C   0  0  0  0  0  0  0  0  0  0  0  0
    3.1955   -1.1554    0.2155 N   0  0  0  0  0  0  0  0  0  0  0  0
    3.9525   -0.0582    0.3602 C   0  0  0  0  0  0  0  0  0  0  0  0
    3.3512    1.1536    0.6581 C   0  0  0  0  0  0  0  0  0  0  0  0
    4.0878    2.3172    0.8042 C   0  0  0  0  0  0  0  0  0  0  0  0
    3.4629    3.4747    1.0837 N   0  0  0  0  0  0  0  0  0  0  0  0
    4.2226    4.5775    1.2144 C   0  0  0  0  0  0  0  0  0  0  0  0
    3.6221    5.7975    1.5019 C   0  0  0  0  0  0  0  0  0  0  0  0
    4.3768    6.9625    1.6450 C   0  0  0  0  0  0  0  0  0  0  0  0
    6.3581    7.8050    1.6073 H   0  0  0  0  0  0  0  0  0  0  0  0
    7.4489    5.6404    1.0945 H   0  0  0  0  0  0  0  0  0  0  0  0
    7.1647    1.0060    0.2371 H   0  0  0  0  0  0  0  0  0  0  0  0
    6.9022   -3.5725   -0.7356 H   0  0  0  0  0  0  0  0  0  0  0  0
    5.5923   -5.6411   -1.1102 H   0  0  0  0  0  0  0  0  0  0  0  0
    3.1304   -5.5961   -0.8547 H   0  0  0  0  0  0  0  0  0  0  0  0
    2.8352   -4.5139    2.1086 H   0  0  0  0  0  0  0  0  0  0  0  0
    1.7454   -5.3945    4.1040 H   0  0  0  0  0  0  0  0  0  0  0  0
   -0.7292   -5.4371    4.2661 H   0  0  0  0  0  0  0  0  0  0  0  0
   -2.0950   -4.5833    2.4078 H   0  0  0  0  0  0  0  0  0  0  0  0
   -2.2794   -3.5927    0.2464 H   0  0  0  0  0  0  0  0  0  0  0  0
   -2.2874    1.6044    0.4254 H   0  0  0  0  0  0  0  0  0  0  0  0
   -2.6793    5.6131    2.9176 H   0  0  0  0  0  0  0  0  0  0  0  0
   -4.0782    7.2932    4.0852 H   0  0  0  0  0  0  0  0  0  0  0  0
   -6.5487    7.0027    4.1544 H   0  0  0  0  0  0  0  0  0  0  0  0
   -7.5821    5.0359    3.0548 H   0  0  0  0  0  0  0  0  0  0  0  0
   -7.1770    1.0389    0.5780 H   0  0  0  0  0  0  0  0  0  0  0  0
   -6.8343   -2.9424   -1.8284 H   0  0  0  0  0  0  0  0  0  0  0  0
   -5.5081   -4.6841   -2.9836 H   0  0  0  0  0  0  0  0  0  0  0  0
   -3.0460   -4.4641   -3.1099 H   0  0  0  0  0  0  0  0  0  0  0  0
   -2.7595   -1.3318   -4.3318 H   0  0  0  0  0  0  0  0  0  0  0  0
   -1.6691   -0.4240   -6.3168 H   0  0  0  0  0  0  0  0  0  0  0  0
    0.8050   -0.4595   -6.5144 H   0  0  0  0  0  0  0  0  0  0  0  0
    2.1660   -1.4093   -4.7014 H   0  0  0  0  0  0  0  0  0  0  0  0
    2.3453   -2.4489   -2.5655 H   0  0  0  0  0  0  0  0  0  0  0  0
    2.2702    1.1918    0.7710 H   0  0  0  0  0  0  0  0  0  0  0  0
    2.5415    5.8386    1.6163 H   0  0  0  0  0  0  0  0  0  0  0  0
    3.8857    7.9059    1.8701 H   0  0  0  0  0  0  0  0  0  0  0  0
  1  2  4  0
  2  3  4  0
  3  4  4  0
  4  5  4  0
  5  6  4  0
  6  7  4  0
  7  8  4  0
  8  9  4  0
  9 10  4  0
 10 11  4  0
 11 12  4  0
 12 13  4  0
 13 14  1  0
 14 15  4  0
 15 16  4  0
 16 17  4  0
 17 18  4  0
 18 19  4  0
 19 20  4  0
 20 21  4  0
 21 22  4  0
 22 23  4  0
 23 24  1  0
 24 25  4  0
 25 26  4  0
 26 27  4  0
 27 28  4  0
 28 29  4  0
 29 30  4  0
 30 31  4  0
 31 32  4  0
 32 33  4  0
 33 34  4  0
 34 35  4  0
 35 36  4  0
 36 37  4  0
 37 38  4  0
 38 39  4  0
 39 40  4  0
 40 41  4  0
 41 42  4  0
 42 43  4  0
 43 44  4  0
 44 45  4  0
 23 46  4  0
 46 47  4  0
 47 48  4  0
 48 49  4  0
 49 50  4  0
 50 51  4  0
 51 52  4  0
 52 53  4  0
 13 54  4  0
 54 55  4  0
 55 56  4  0
 56 57  4  0
 57 58  4  0
 58 59  4  0
 59 60  4  0
 60 61  4  0
 61 62  4  0
 62  1  4  0
 60  3  4  0
 58  5  4  0
 56  7  4  0
 54  9  4  0
 53 14  4  0
 20 15  4  0
 53 22  4  0
 45 24  4  0
 51 46  4  0
 42 25  4  0
 40 27  4  0
 38 29  4  0
 36 31  4  0
  1 63  1  0
  2 64  1  0
  6 65  1  0
 10 66  1  0
 11 67  1  0
 12 68  1  0
 16 69  1  0
 17 70  1  0
 18 71  1  0
 19 72  1  0
 21 73  1  0
 28 74  1  0
 32 75  1  0
 33 76  1  0
 34 77  1  0
 35 78  1  0
 39 79  1  0
 43 80  1  0
 44 81  1  0
 45 82  1  0
 47 83  1  0
 48 84  1  0
 49 85  1  0
 50 86  1  0
 52 87  1  0
 57 88  1  0
 61 89  1  0
 62 90  1  0
M  END
