
     RDKit          3D

 90103  0  0  0  0  0  0  0  0999 V2000
   14.7830    0.1821   -0.5024 C   0  0  0  0  0  0  0  0  0  0  0  0
   14.4910    1.4313   -1.0340 C   0  0  0  0  0  0  0  0  0  0  0  0
   13.1612    1.7913   -1.2548 C   0  0  0  0  0  0  0  0  0  0  0  0
   12.1181    0.9242   -0.9532 C   0  0  0  0  0  0  0  0  0  0  0  0
   10.8474    1.3054   -1.1795 N   0  0  0  0  0  0  0  0  0  0  0  0
    9.8733    0.4326   -0.8713 C   0  0  0  0  0  0  0  0  0  0  0  0
    8.5493    0.7803   -1.0839 C   0  0  0  0  0  0  0  0  0  0  0  0
    7.5081   -0.0812   -0.7794 C   0  0  0  0  0  0  0  0  0  0  0  0
    6.2390    0.3032   -1.0006 N   0  0  0  0  0  0  0  0  0  0  0  0
    5.2595   -0.5649   -0.6867 C   0  0  0  0  0  0  0  0  0  0  0  0
    3.9311   -0.2134   -0.8998 C   0  0  0  0  0  0  0  0  0  0  0  0
    2.8762   -1.0895   -0.6000 C   0  0  0  0  0  0  0  0  0  0  0  0
    1.4703   -0.7101   -0.8680 C   0  0  0  0  0  0  0  0  0  0  0  0
    0.9226   -0.9512   -2.1683 C   0  0  0  0  0  0  0  0  0  0  0  0
    1.6450   -1.5279   -3.2466 C   0  0  0  0  0  0  0  0  0  0  0  0
    1.0666   -1.7419   -4.5000 C   0  0  0  0  0  0  0  0  0  0  0  0
   -0.2562   -1.3878   -4.7141 C   0  0  0  0  0  0  0  0  0  0  0  0
   -0.9928   -0.8234   -3.6748 C   0  0  0  0  0  0  0  0  0  0  0  0
   -0.4190   -0.6034   -2.4090 C   0  0  0  0  0  0  0  0  0  0  0  0
   -1.1839   -0.0395   -1.3785 C   0  0  0  0  0  0  0  0  0  0  0  0
   -0.6808    0.2125   -0.0810 C   0  0  0  0  0  0  0  0  0  0  0  0
   -1.4886    0.7848    0.9612 C   0  0  0  0  0  0  0  0  0  0  0  0
   -2.9043    1.1283    0.6989 C   0  0  0  0  0  0  0  0  0  0  0  0
   -3.9244    0.1958    0.9415 C   0  0  0  0  0  0  0  0  0  0  0  0
   -5.2620    0.4991    0.7191 C   0  0  0  0  0  0  0  0  0  0  0  0
   -6.2037   -0.4275    0.9713 N   0  0  0  0  0  0  0  0  0  0  0  0
   -7.4849   -0.0912    0.7432 C   0  0  0  0  0  0  0  0  0  0  0  0
   -8.4900   -1.0128    0.9880 C   0  0  0  0  0  0  0  0  0  0  0  0
   -9.8253   -0.7161    0.7687 C   0  0  0  0  0  0  0  0  0  0  0  0
  -10.7624   -1.6452    1.0225 N   0  0  0  0  0  0  0  0  0  0  0  0
  -12.0464   -1.3128    0.7932 C   0  0  0  0  0  0  0  0  0  0  0  0
  -13.0526   -2.2390    1.0401 C   0  0  0  0  0  0  0  0  0  0  0  0
  -14.3947   -1.9308    0.8142 C   0  0  0  0  0  0  0  0  0  0  0  0
  -14.7371   -0.6742    0.3326 C   0  0  0  0  0  0  0  0  0  0  0  0
  -13.7338    0.2627    0.0818 C   0  0  0  0  0  0  0  0  0  0  0  0
  -12.3944   -0.0348    0.3039 C   0  0  0  0  0  0  0  0  0  0  0  0
  -11.4532    0.8937    0.0513 N   0  0  0  0  0  0  0  0  0  0  0  0
  -10.1719    0.5587    0.2819 C   0  0  0  0  0  0  0  0  0  0  0  0
   -9.1666    1.4807    0.0385 C   0  0  0  0  0  0  0  0  0  0  0  0
   -7.8309    1.1845    0.2587 C   0  0  0  0  0  0  0  0  0  0  0  0
   -6.8920    2.1133    0.0072 N   0  0  0  0  0  0  0  0  0  0  0  0
   -5.6087    1.7779    0.2338 C   0  0  0  0  0  0  0  0  0  0  0  0
   -4.6022    2.7024   -0.0110 C   0  0  0  0  0  0  0  0  0  0  0  0
   -3.2602    2.3914    0.2169 C   0  0  0  0  0  0  0  0  0  0  0  0
   -0.9450    1.0245    2.2621 C   0  0  0  0  0  0  0  0  0  0  0  0
   -1.6789    1.5798    3.3447 C   0  0  0  0  0  0  0  0  0  0  0  0
   -1.1027    1.7964    4.5986 C   0  0  0  0  0  0  0  0  0  0  0  0
    0.2264    1.4634    4.8088 C   0  0  0  0  0  0  0  0  0  0  0  0
    0.9713    0.9153    3.7664 C   0  0  0  0  0  0  0  0  0  0  0  0
    0.4020    0.6929    2.4993 C   0  0  0  0  0  0  0  0  0  0  0  0
    1.1734    0.1370    1.4674 C   0  0  0  0  0  0  0  0  0  0  0  0
    0.6688   -0.1240    0.1717 C   0  0  0  0  0  0  0  0  0  0  0  0
    3.1867   -2.3427   -0.0635 C   0  0  0  0  0  0  0  0  0  0  0  0
    4.5179   -2.7007    0.1583 C   0  0  0  0  0  0  0  0  0  0  0  0
    5.5583   -1.8342   -0.1474 C   0  0  0  0  0  0  0  0  0  0  0  0
    6.8289   -2.2183    0.0715 N   0  0  0  0  0  0  0  0  0  0  0  0
    7.8040   -1.3477   -0.2411 C   0  0  0  0  0  0  0  0  0  0  0  0
    9.1279   -1.6964   -0.0304 C   0  0  0  0  0  0  0  0  0  0  0  0
   10.1692   -0.8341   -0.3323 C   0  0  0  0  0  0  0  0  0  0  0  0
   11.4368   -1.2180   -0.1056 N   0  0  0  0  0  0  0  0  0  0  0  0
   12.4149   -0.3460   -0.4126 C   0  0  0  0  0  0  0  0  0  0  0  0
   13.7423   -0.6955   -0.1963 C   0  0  0  0  0  0  0  0  0  0  0  0
   15.8138   -0.1130   -0.3246 H   0  0  0  0  0  0  0  0  0  0  0  0
   15.2905    2.1260   -1.2776 H   0  0  0  0  0  0  0  0  0  0  0  0
   12.9300    2.7689   -1.6710 H   0  0  0  0  0  0  0  0  0  0  0  0
    8.3206    1.7581   -1.5006 H   0  0  0  0  0  0  0  0  0  0  0  0
    3.7164    0.7667   -1.3225 H   0  0  0  0  0  0  0  0  0  0  0  0
    2.6851   -1.8222   -3.1216 H   0  0  0  0  0  0  0  0  0  0  0  0
    1.6534   -2.1836   -5.3015 H   0  0  0  0  0  0  0  0  0  0  0  0
   -0.7172   -1.5501   -5.6846 H   0  0  0  0  0  0  0  0  0  0  0  0
   -2.0308   -0.5543   -3.8615 H   0  0  0  0  0  0  0  0  0  0  0  0
   -2.2198    0.2095   -1.6059 H   0  0  0  0  0  0  0  0  0  0  0  0
   -3.6743   -0.7937    1.3205 H   0  0  0  0  0  0  0  0  0  0  0  0
   -8.2233   -1.9977    1.3632 H   0  0  0  0  0  0  0  0  0  0  0  0
  -12.7828   -3.2225    1.4175 H   0  0  0  0  0  0  0  0  0  0  0  0
  -15.1644   -2.6715    1.0149 H   0  0  0  0  0  0  0  0  0  0  0  0
  -15.7785   -0.4196    0.1519 H   0  0  0  0  0  0  0  0  0  0  0  0
  -13.9992    1.2475   -0.2951 H   0  0  0  0  0  0  0  0  0  0  0  0
   -9.4341    2.4655   -0.3365 H   0  0  0  0  0  0  0  0  0  0  0  0
   -4.8701    3.6880   -0.3844 H   0  0  0  0  0  0  0  0  0  0  0  0
   -2.4948    3.1403    0.0201 H   0  0  0  0  0  0  0  0  0  0  0  0
   -2.7254    1.8540    3.2228 H   0  0  0  0  0  0  0  0  0  0  0  0
   -1.6948    2.2234    5.4041 H   0  0  0  0  0  0  0  0  0  0  0  0
    0.6861    1.6270    5.7796 H   0  0  0  0  0  0  0  0  0  0  0  0
    2.0116    0.6582    3.9539 H   0  0  0  0  0  0  0  0  0  0  0  0
    2.2127   -0.1017    1.6921 H   0  0  0  0  0  0  0  0  0  0  0  0
    2.3942   -3.0494    0.1775 H   0  0  0  0  0  0  0  0  0  0  0  0
    4.7494   -3.6791    0.5728 H   0  0  0  0  0  0  0  0  0  0  0  0
    9.3565   -2.6746    0.3853 H   0  0  0  0  0  0  0  0  0  0  0  0
   13.9683   -1.6743    0.2201 H   0  0  0  0  0  0  0  0  0  0  0  0
  1  2  4  0
  2  3  4  0
  3  4  4  0
  4  5  4  0
  5  6  4  0
  6  7  4  0
  7  8  4  0
  8  9  4  0
  9 10  4  0
 10 11  4  0
 11 12  4  0
 12 13  1  0
 13 14  4  0
 14 15  4  0
 15 16  4  0
 16 17  4  0
 17 18  4  0
 18 19  4  0
 19 20  4  0
 20 21  4  0
 21 22  4  0
 22 23  1  0
 23 24  4  0
 24 25  4  0
 25 26  4  0
 26 27  4  0
 27 28  4  0
 28 29  4  0
 29 30  4  0
 30 31  4  0
 31 32  4  0
 32 33  4  0
 33 34  4  0
 34 35  4  0
 35 36  4  0
 36 37  4  0
 37 38  4  0
 38 39  4  0
 39 40  4  0
 40 41  4  0
 41 42  4  0
 42 43  4  0
 43 44  4  0
 22 45  4  0
 45 46  4  0
 46 47  4  0
 47 48  4  0
 48 49  4  0
 49 50  4  0
 50 51  4  0
 51 52  4  0
 12 53  4  0
 53 54  4  0
 54 55  4  0
 55 56  4  0
 56 57  4  0
 57 58  4  0
 58 59  4  0
 59 60  4  0
 60 61  4  0
 61 62  4  0
 62  1  4  0
 61  4  4  0
 59  6  4  0
 57  8  4  0
 55 10  4  0
 52 13  4  0
 19 14  4  0
 52 21  4  0
 44 23  4  0
 50 45  4  0
 42 25  4  0
 40 27  4  0
 38 29  4  0
 36 31  4  0
  1 63  1  0
  2 64  1  0
  3 65  1  0
  7 66  1  0
 11 67  1  0
 15 68  1  0
 16 69  1  0
 17 70  1  0
 18 71  1  0
 20 72  1  0
 24 73  1  0
 28 74  1  0
 32 75  1  0
 33 76  1  0
 34 77  1  0
 35 78  1  0
 39 79  1  0
 43 80  1  0
 44 81  1  0
 46 82  1  0
 47 83  1  0
 48 84  1  0
 49 85  1  0
 51 86  1  0
 53 87  1  0
 54 88  1  0
 58 89  1  0
 62 90  1  0
M  END
