
     RDKit          3D

 90103  0  0  0  0  0  0  0  0999 V2000
    5.2326   -0.7299    7.5949 C   0  0  0  0  0  0  0  0  0  0  0  0
    3.9739   -0.1454    7.5470 C   0  0  0  0  0  0  0  0  0  0  0  0
    3.3418    0.0268    6.3149 C   0  0  0  0  0  0  0  0  0  0  0  0
    3.9461   -0.3751    5.1296 C   0  0  0  0  0  0  0  0  0  0  0  0
    3.3064   -0.1932    3.9598 N   0  0  0  0  0  0  0  0  0  0  0  0
    3.9313   -0.5979    2.8407 C   0  0  0  0  0  0  0  0  0  0  0  0
    3.3134   -0.4340    1.6122 C   0  0  0  0  0  0  0  0  0  0  0  0
    3.9153   -0.8385    0.4322 C   0  0  0  0  0  0  0  0  0  0  0  0
    3.2750   -0.6645   -0.7333 N   0  0  0  0  0  0  0  0  0  0  0  0
    3.8747   -1.0784   -1.8715 C   0  0  0  0  0  0  0  0  0  0  0  0
    5.1571   -1.6689   -1.8115 C   0  0  0  0  0  0  0  0  0  0  0  0
    5.8054   -1.8366   -0.6443 N   0  0  0  0  0  0  0  0  0  0  0  0
    5.1884   -1.4288    0.4776 C   0  0  0  0  0  0  0  0  0  0  0  0
    5.8089   -1.5906    1.7058 C   0  0  0  0  0  0  0  0  0  0  0  0
    5.2078   -1.1903    2.8884 C   0  0  0  0  0  0  0  0  0  0  0  0
    5.8490   -1.3738    4.0553 N   0  0  0  0  0  0  0  0  0  0  0  0
    5.2259   -0.9694    5.1778 C   0  0  0  0  0  0  0  0  0  0  0  0
    5.8473   -1.1367    6.4098 C   0  0  0  0  0  0  0  0  0  0  0  0
    5.7730   -2.0983   -2.9794 C   0  0  0  0  0  0  0  0  0  0  0  0
    5.1536   -1.9685   -4.2190 C   0  0  0  0  0  0  0  0  0  0  0  0
    3.8916   -1.3962   -4.2905 C   0  0  0  0  0  0  0  0  0  0  0  0
    3.2445   -0.9462   -3.1238 C   0  0  0  0  0  0  0  0  0  0  0  0
    1.8903   -0.3418   -3.2462 C   0  0  0  0  0  0  0  0  0  0  0  0
    1.7719    1.0478   -3.5645 C   0  0  0  0  0  0  0  0  0  0  0  0
    2.8738    1.9275   -3.7259 C   0  0  0  0  0  0  0  0  0  0  0  0
    2.7066    3.2794   -4.0353 C   0  0  0  0  0  0  0  0  0  0  0  0
    1.4294    3.7957   -4.1904 C   0  0  0  0  0  0  0  0  0  0  0  0
    0.3269    2.9581   -4.0346 C   0  0  0  0  0  0  0  0  0  0  0  0
    0.4857    1.5944   -3.7258 C   0  0  0  0  0  0  0  0  0  0  0  0
   -0.6396    0.7734   -3.5729 C   0  0  0  0  0  0  0  0  0  0  0  0
   -0.5668   -0.5979   -3.2349 C   0  0  0  0  0  0  0  0  0  0  0  0
   -1.7366   -1.4172   -3.0655 C   0  0  0  0  0  0  0  0  0  0  0  0
   -3.0903   -0.8533   -3.3246 C   0  0  0  0  0  0  0  0  0  0  0  0
   -3.6851   -1.0922   -4.5792 C   0  0  0  0  0  0  0  0  0  0  0  0
   -4.9511   -0.6027   -4.8656 C   0  0  0  0  0  0  0  0  0  0  0  0
   -5.6285    0.1345   -3.8996 C   0  0  0  0  0  0  0  0  0  0  0  0
   -5.0643    0.3967   -2.6588 C   0  0  0  0  0  0  0  0  0  0  0  0
   -5.7691    1.1323   -1.7804 N   0  0  0  0  0  0  0  0  0  0  0  0
   -5.2002    1.4040   -0.5943 C   0  0  0  0  0  0  0  0  0  0  0  0
   -5.8794    2.1759    0.3345 C   0  0  0  0  0  0  0  0  0  0  0  0
   -5.3301    2.4937    1.5662 C   0  0  0  0  0  0  0  0  0  0  0  0
   -6.0293    3.2494    2.4314 N   0  0  0  0  0  0  0  0  0  0  0  0
   -5.4539    3.5353    3.6141 C   0  0  0  0  0  0  0  0  0  0  0  0
   -6.1358    4.3122    4.5436 C   0  0  0  0  0  0  0  0  0  0  0  0
   -5.5710    4.6294    5.7798 C   0  0  0  0  0  0  0  0  0  0  0  0
   -4.3016    4.1616    6.0923 C   0  0  0  0  0  0  0  0  0  0  0  0
   -3.6090    3.3810    5.1656 C   0  0  0  0  0  0  0  0  0  0  0  0
   -4.1632    3.0599    3.9320 C   0  0  0  0  0  0  0  0  0  0  0  0
   -3.4661    2.3045    3.0632 N   0  0  0  0  0  0  0  0  0  0  0  0
   -4.0438    2.0173    1.8835 C   0  0  0  0  0  0  0  0  0  0  0  0
   -3.3681    1.2401    0.9556 C   0  0  0  0  0  0  0  0  0  0  0  0
   -3.9199    0.9236   -0.2758 C   0  0  0  0  0  0  0  0  0  0  0  0
   -3.2268    0.1726   -1.1465 N   0  0  0  0  0  0  0  0  0  0  0  0
   -3.7761   -0.0990   -2.3522 C   0  0  0  0  0  0  0  0  0  0  0  0
   -1.6165   -2.7932   -2.6877 C   0  0  0  0  0  0  0  0  0  0  0  0
   -2.7178   -3.6601   -2.4611 C   0  0  0  0  0  0  0  0  0  0  0  0
   -2.5490   -4.9985   -2.0972 C   0  0  0  0  0  0  0  0  0  0  0  0
   -1.2704   -5.5130   -1.9482 C   0  0  0  0  0  0  0  0  0  0  0  0
   -0.1689   -4.6879   -2.1615 C   0  0  0  0  0  0  0  0  0  0  0  0
   -0.3295   -3.3376   -2.5231 C   0  0  0  0  0  0  0  0  0  0  0  0
    0.7957   -2.5262   -2.7184 C   0  0  0  0  0  0  0  0  0  0  0  0
    0.7201   -1.1573   -3.0650 C   0  0  0  0  0  0  0  0  0  0  0  0
    5.7376   -0.8708    8.5473 H   0  0  0  0  0  0  0  0  0  0  0  0
    3.4817    0.1767    8.4608 H   0  0  0  0  0  0  0  0  0  0  0  0
    2.3561    0.4841    6.2747 H   0  0  0  0  0  0  0  0  0  0  0  0
    2.3274    0.0225    1.5719 H   0  0  0  0  0  0  0  0  0  0  0  0
    6.7949   -2.0466    1.7431 H   0  0  0  0  0  0  0  0  0  0  0  0
    6.8329   -1.5948    6.4445 H   0  0  0  0  0  0  0  0  0  0  0  0
    6.7610   -2.5496   -2.9181 H   0  0  0  0  0  0  0  0  0  0  0  0
    5.6532   -2.3141   -5.1204 H   0  0  0  0  0  0  0  0  0  0  0  0
    3.4012   -1.2950   -5.2577 H   0  0  0  0  0  0  0  0  0  0  0  0
    3.8917    1.5663   -3.5984 H   0  0  0  0  0  0  0  0  0  0  0  0
    3.5749    3.9233   -4.1450 H   0  0  0  0  0  0  0  0  0  0  0  0
    1.2891    4.8473   -4.4245 H   0  0  0  0  0  0  0  0  0  0  0  0
   -0.6691    3.3817   -4.1502 H   0  0  0  0  0  0  0  0  0  0  0  0
   -1.6154    1.2377   -3.7035 H   0  0  0  0  0  0  0  0  0  0  0  0
   -3.1504   -1.6708   -5.3312 H   0  0  0  0  0  0  0  0  0  0  0  0
   -5.4098   -0.7921   -5.8328 H   0  0  0  0  0  0  0  0  0  0  0  0
   -6.6208    0.5224   -4.1196 H   0  0  0  0  0  0  0  0  0  0  0  0
   -6.8713    2.5465    0.0883 H   0  0  0  0  0  0  0  0  0  0  0  0
   -7.1298    4.6780    4.2969 H   0  0  0  0  0  0  0  0  0  0  0  0
   -6.1231    5.2386    6.4911 H   0  0  0  0  0  0  0  0  0  0  0  0
   -3.8482    4.4000    7.0513 H   0  0  0  0  0  0  0  0  0  0  0  0
   -2.6149    3.0132    5.4084 H   0  0  0  0  0  0  0  0  0  0  0  0
   -2.3737    0.8718    1.1968 H   0  0  0  0  0  0  0  0  0  0  0  0
   -3.7374   -3.2928   -2.5533 H   0  0  0  0  0  0  0  0  0  0  0  0
   -3.4172   -5.6284   -1.9241 H   0  0  0  0  0  0  0  0  0  0  0  0
   -1.1254   -6.5493   -1.6577 H   0  0  0  0  0  0  0  0  0  0  0  0
    0.8273   -5.1082   -2.0345 H   0  0  0  0  0  0  0  0  0  0  0  0
    1.7722   -2.9853   -2.5717 H   0  0  0  0  0  0  0  0  0  0  0  0
  1  2  4  0
  2  3  4  0
  3  4  4  0
  4  5  4  0
  5  6  4  0
  6  7  4  0
  7  8  4  0
  8  9  4  0
  9 10  4  0
 10 11  4  0
 11 12  4  0
 12 13  4  0
 13 14  4  0
 14 15  4  0
 15 16  4  0
 16 17  4  0
 17 18  4  0
 11 19  4  0
 19 20  4  0
 20 21  4  0
 21 22  4  0
 22 23  1  0
 23 24  4  0
 24 25  4  0
 25 26  4  0
 26 27  4  0
 27 28  4  0
 28 29  4  0
 29 30  4  0
 30 31  4  0
 31 32  4  0
 32 33  1  0
 33 34  4  0
 34 35  4  0
 35 36  4  0
 36 37  4  0
 37 38  4  0
 38 39  4  0
 39 40  4  0
 40 41  4  0
 41 42  4  0
 42 43  4  0
 43 44  4  0
 44 45  4  0
 45 46  4  0
 46 47  4  0
 47 48  4  0
 48 49  4  0
 49 50  4  0
 50 51  4  0
 51 52  4  0
 52 53  4  0
 53 54  4  0
 32 55  4  0
 55 56  4  0
 56 57  4  0
 57 58  4  0
 58 59  4  0
 59 60  4  0
 60 61  4  0
 61 62  4  0
 18  1  4  0
 62 23  4  0
 17  4  4  0
 29 24  4  0
 62 31  4  0
 15  6  4  0
 54 33  4  0
 60 55  4  0
 13  8  4  0
 54 37  4  0
 22 10  4  0
 52 39  4  0
 50 41  4  0
 48 43  4  0
  1 63  1  0
  2 64  1  0
  3 65  1  0
  7 66  1  0
 14 67  1  0
 18 68  1  0
 19 69  1  0
 20 70  1  0
 21 71  1  0
 25 72  1  0
 26 73  1  0
 27 74  1  0
 28 75  1  0
 30 76  1  0
 34 77  1  0
 35 78  1  0
 36 79  1  0
 40 80  1  0
 44 81  1  0
 45 82  1  0
 46 83  1  0
 47 84  1  0
 51 85  1  0
 56 86  1  0
 57 87  1  0
 58 88  1  0
 59 89  1  0
 61 90  1  0
M  END
