
     RDKit          3D

 94107  0  0  0  0  0  0  0  0999 V2000
   -4.7704   -0.1496   -6.0575 C   0  0  0  0  0  0  0  0  0  0  0  0
   -3.5095   -0.6993   -5.8567 C   0  0  0  0  0  0  0  0  0  0  0  0
   -2.9732   -0.7539   -4.5670 C   0  0  0  0  0  0  0  0  0  0  0  0
   -3.6671   -0.2699   -3.4663 C   0  0  0  0  0  0  0  0  0  0  0  0
   -3.1069   -0.3431   -2.2482 N   0  0  0  0  0  0  0  0  0  0  0  0
   -3.7599    0.1251   -1.1610 C   0  0  0  0  0  0  0  0  0  0  0  0
   -5.0382    0.6931   -1.2836 C   0  0  0  0  0  0  0  0  0  0  0  0
   -5.6231    0.7645   -2.5544 C   0  0  0  0  0  0  0  0  0  0  0  0
   -4.9397    0.2831   -3.6738 C   0  0  0  0  0  0  0  0  0  0  0  0
   -5.4872    0.3417   -4.9684 C   0  0  0  0  0  0  0  0  0  0  0  0
   -5.7128    1.1824   -0.1560 C   0  0  0  0  0  0  0  0  0  0  0  0
   -5.1618    1.1370    1.1097 C   0  0  0  0  0  0  0  0  0  0  0  0
   -5.8873    1.6356    2.1240 N   0  0  0  0  0  0  0  0  0  0  0  0
   -5.3839    1.6124    3.3693 C   0  0  0  0  0  0  0  0  0  0  0  0
   -6.1326    2.1272    4.4205 C   0  0  0  0  0  0  0  0  0  0  0  0
   -5.6560    2.1242    5.7350 C   0  0  0  0  0  0  0  0  0  0  0  0
   -4.4012    1.5949    6.0121 C   0  0  0  0  0  0  0  0  0  0  0  0
   -3.6307    1.0739    4.9744 C   0  0  0  0  0  0  0  0  0  0  0  0
   -4.1167    1.0811    3.6542 C   0  0  0  0  0  0  0  0  0  0  0  0
   -3.3735    0.5674    2.5842 C   0  0  0  0  0  0  0  0  0  0  0  0
   -3.8822    0.5790    1.2677 C   0  0  0  0  0  0  0  0  0  0  0  0
   -3.1821    0.0680    0.1251 C   0  0  0  0  0  0  0  0  0  0  0  0
   -1.8200   -0.5337    0.2782 C   0  0  0  0  0  0  0  0  0  0  0  0
   -1.7004   -1.9231    0.5984 C   0  0  0  0  0  0  0  0  0  0  0  0
   -2.8029   -2.7970    0.7838 C   0  0  0  0  0  0  0  0  0  0  0  0
   -2.6341   -4.1459    1.1047 C   0  0  0  0  0  0  0  0  0  0  0  0
   -1.3567   -4.6644    1.2490 C   0  0  0  0  0  0  0  0  0  0  0  0
   -0.2540   -3.8325    1.0686 C   0  0  0  0  0  0  0  0  0  0  0  0
   -0.4126   -2.4725    0.7447 C   0  0  0  0  0  0  0  0  0  0  0  0
    0.7139   -1.6579    0.5638 C   0  0  0  0  0  0  0  0  0  0  0  0
    0.6379   -0.2845    0.2375 C   0  0  0  0  0  0  0  0  0  0  0  0
    1.8067    0.5282    0.0343 C   0  0  0  0  0  0  0  0  0  0  0  0
    3.1695   -0.0862    0.0994 C   0  0  0  0  0  0  0  0  0  0  0  0
    3.7706   -0.6202   -1.0901 C   0  0  0  0  0  0  0  0  0  0  0  0
    3.1504   -0.6321   -2.3579 C   0  0  0  0  0  0  0  0  0  0  0  0
    3.7986   -1.1629   -3.4788 C   0  0  0  0  0  0  0  0  0  0  0  0
    3.1944   -1.1825   -4.7491 C   0  0  0  0  0  0  0  0  0  0  0  0
    3.8706   -1.7192   -5.8416 C   0  0  0  0  0  0  0  0  0  0  0  0
    5.1494   -2.2356   -5.6688 C   0  0  0  0  0  0  0  0  0  0  0  0
    5.7435   -2.2122   -4.4031 C   0  0  0  0  0  0  0  0  0  0  0  0
    5.0894   -1.6833   -3.2976 C   0  0  0  0  0  0  0  0  0  0  0  0
    5.7001   -1.6839   -2.1007 N   0  0  0  0  0  0  0  0  0  0  0  0
    5.0603   -1.1736   -1.0347 C   0  0  0  0  0  0  0  0  0  0  0  0
    5.7156   -1.1968    0.1803 C   0  0  0  0  0  0  0  0  0  0  0  0
    5.1398   -0.6839    1.3518 C   0  0  0  0  0  0  0  0  0  0  0  0
    5.8387   -0.7245    2.5645 C   0  0  0  0  0  0  0  0  0  0  0  0
    5.2660   -0.2062    3.7280 C   0  0  0  0  0  0  0  0  0  0  0  0
    5.9371   -0.2262    4.9649 C   0  0  0  0  0  0  0  0  0  0  0  0
    5.3314    0.3044    6.1015 C   0  0  0  0  0  0  0  0  0  0  0  0
    4.0586    0.8544    6.0053 C   0  0  0  0  0  0  0  0  0  0  0  0
    3.3980    0.8685    4.7725 C   0  0  0  0  0  0  0  0  0  0  0  0
    3.9801    0.3457    3.6250 C   0  0  0  0  0  0  0  0  0  0  0  0
    3.3053    0.3817    2.4626 N   0  0  0  0  0  0  0  0  0  0  0  0
    3.8549   -0.1168    1.3318 C   0  0  0  0  0  0  0  0  0  0  0  0
    1.6851    1.9186   -0.2842 C   0  0  0  0  0  0  0  0  0  0  0  0
    2.7850    2.7898   -0.4974 C   0  0  0  0  0  0  0  0  0  0  0  0
    2.6119    4.1366   -0.8248 C   0  0  0  0  0  0  0  0  0  0  0  0
    1.3326    4.6561   -0.9468 C   0  0  0  0  0  0  0  0  0  0  0  0
    0.2329    3.8276   -0.7387 C   0  0  0  0  0  0  0  0  0  0  0  0
    0.3969    2.4700   -0.4099 C   0  0  0  0  0  0  0  0  0  0  0  0
   -0.7271    1.6571   -0.2168 C   0  0  0  0  0  0  0  0  0  0  0  0
   -0.6498    0.2823    0.1015 C   0  0  0  0  0  0  0  0  0  0  0  0
   -5.1942   -0.1036   -7.0573 H   0  0  0  0  0  0  0  0  0  0  0  0
   -2.9390   -1.0866   -6.6966 H   0  0  0  0  0  0  0  0  0  0  0  0
   -1.9870   -1.1859   -4.4139 H   0  0  0  0  0  0  0  0  0  0  0  0
   -6.6128    1.2003   -2.6740 H   0  0  0  0  0  0  0  0  0  0  0  0
   -6.4731    0.7703   -5.1326 H   0  0  0  0  0  0  0  0  0  0  0  0
   -6.7042    1.6201   -0.2631 H   0  0  0  0  0  0  0  0  0  0  0  0
   -7.1152    2.5418    4.2088 H   0  0  0  0  0  0  0  0  0  0  0  0
   -6.2672    2.5343    6.5347 H   0  0  0  0  0  0  0  0  0  0  0  0
   -4.0219    1.5867    7.0306 H   0  0  0  0  0  0  0  0  0  0  0  0
   -2.6498    0.6604    5.1978 H   0  0  0  0  0  0  0  0  0  0  0  0
   -2.3863    0.1537    2.7840 H   0  0  0  0  0  0  0  0  0  0  0  0
   -3.8224   -2.4335    0.6745 H   0  0  0  0  0  0  0  0  0  0  0  0
   -3.5031   -4.7846    1.2373 H   0  0  0  0  0  0  0  0  0  0  0  0
   -1.2162   -5.7126    1.4976 H   0  0  0  0  0  0  0  0  0  0  0  0
    0.7416   -4.2572    1.1827 H   0  0  0  0  0  0  0  0  0  0  0  0
    1.6913   -2.1219    0.6876 H   0  0  0  0  0  0  0  0  0  0  0  0
    2.1480   -0.2240   -2.4794 H   0  0  0  0  0  0  0  0  0  0  0  0
    2.1931   -0.7801   -4.8887 H   0  0  0  0  0  0  0  0  0  0  0  0
    3.4018   -1.7339   -6.8221 H   0  0  0  0  0  0  0  0  0  0  0  0
    5.6888   -2.6574   -6.5129 H   0  0  0  0  0  0  0  0  0  0  0  0
    6.7441   -2.6183   -4.2748 H   0  0  0  0  0  0  0  0  0  0  0  0
    6.7135   -1.6313    0.2101 H   0  0  0  0  0  0  0  0  0  0  0  0
    6.8351   -1.1594    2.6030 H   0  0  0  0  0  0  0  0  0  0  0  0
    6.9334   -0.6543    5.0463 H   0  0  0  0  0  0  0  0  0  0  0  0
    5.8505    0.2895    7.0561 H   0  0  0  0  0  0  0  0  0  0  0  0
    3.5751    1.2736    6.8839 H   0  0  0  0  0  0  0  0  0  0  0  0
    2.4020    1.3002    4.7022 H   0  0  0  0  0  0  0  0  0  0  0  0
    3.8057    2.4252   -0.4051 H   0  0  0  0  0  0  0  0  0  0  0  0
    3.4786    4.7727   -0.9809 H   0  0  0  0  0  0  0  0  0  0  0  0
    1.1867    5.7018   -1.2011 H   0  0  0  0  0  0  0  0  0  0  0  0
   -0.7643    4.2519   -0.8387 H   0  0  0  0  0  0  0  0  0  0  0  0
   -1.7043    2.1236   -0.3303 H   0  0  0  0  0  0  0  0  0  0  0  0
  1  2  4  0
  2  3  4  0
  3  4  4  0
  4  5  4  0
  5  6  4  0
  6  7  4  0
  7  8  4  0
  8  9  4  0
  9 10  4  0
  7 11  4  0
 11 12  4  0
 12 13  4  0
 13 14  4  0
 14 15  4  0
 15 16  4  0
 16 17  4  0
 17 18  4  0
 18 19  4  0
 19 20  4  0
 20 21  4  0
 21 22  4  0
 22 23  1  0
 23 24  4  0
 24 25  4  0
 25 26  4  0
 26 27  4  0
 27 28  4  0
 28 29  4  0
 29 30  4  0
 30 31  4  0
 31 32  4  0
 32 33  1  0
 33 34  4  0
 34 35  4  0
 35 36  4  0
 36 37  4  0
 37 38  4  0
 38 39  4  0
 39 40  4  0
 40 41  4  0
 41 42  4  0
 42 43  4  0
 43 44  4  0
 44 45  4  0
 45 46  4  0
 46 47  4  0
 47 48  4  0
 48 49  4  0
 49 50  4  0
 50 51  4  0
 51 52  4  0
 52 53  4  0
 53 54  4  0
 32 55  4  0
 55 56  4  0
 56 57  4  0
 57 58  4  0
 58 59  4  0
 59 60  4  0
 60 61  4  0
 61 62  4  0
 10  1  4  0
 21 12  4  0
 62 23  4  0
  9  4  4  0
 19 14  4  0
 29 24  4  0
 62 31  4  0
 22  6  4  0
 54 33  4  0
 60 55  4  0
 43 34  4  0
 54 45  4  0
 41 36  4  0
 52 47  4  0
  1 63  1  0
  2 64  1  0
  3 65  1  0
  8 66  1  0
 10 67  1  0
 11 68  1  0
 15 69  1  0
 16 70  1  0
 17 71  1  0
 18 72  1  0
 20 73  1  0
 25 74  1  0
 26 75  1  0
 27 76  1  0
 28 77  1  0
 30 78  1  0
 35 79  1  0
 37 80  1  0
 38 81  1  0
 39 82  1  0
 40 83  1  0
 44 84  1  0
 46 85  1  0
 48 86  1  0
 49 87  1  0
 50 88  1  0
 51 89  1  0
 56 90  1  0
 57 91  1  0
 58 92  1  0
 59 93  1  0
 61 94  1  0
M  END
