
     RDKit          3D

 94107  0  0  0  0  0  0  0  0999 V2000
  -13.2616    4.0458   -2.0896 C   0  0  0  0  0  0  0  0  0  0  0  0
  -11.8794    3.9516   -2.2352 C   0  0  0  0  0  0  0  0  0  0  0  0
  -11.1841    2.8462   -1.7125 C   0  0  0  0  0  0  0  0  0  0  0  0
   -9.7968    2.7189   -1.8399 C   0  0  0  0  0  0  0  0  0  0  0  0
   -9.1419    1.6036   -1.3057 C   0  0  0  0  0  0  0  0  0  0  0  0
   -7.7482    1.4370   -1.4101 C   0  0  0  0  0  0  0  0  0  0  0  0
   -7.1036    0.3318   -0.8786 C   0  0  0  0  0  0  0  0  0  0  0  0
   -5.7709    0.2229   -1.0031 N   0  0  0  0  0  0  0  0  0  0  0  0
   -5.1470   -0.8481   -0.4826 C   0  0  0  0  0  0  0  0  0  0  0  0
   -3.7687   -0.9578   -0.6047 C   0  0  0  0  0  0  0  0  0  0  0  0
   -3.0548   -2.0481   -0.0775 C   0  0  0  0  0  0  0  0  0  0  0  0
   -1.5828   -2.1254   -0.2164 C   0  0  0  0  0  0  0  0  0  0  0  0
   -1.0213   -2.7877   -1.3521 C   0  0  0  0  0  0  0  0  0  0  0  0
   -1.7880   -3.3800   -2.3893 C   0  0  0  0  0  0  0  0  0  0  0  0
   -1.1929   -4.0139   -3.4824 C   0  0  0  0  0  0  0  0  0  0  0  0
    0.1889   -4.0750   -3.5721 C   0  0  0  0  0  0  0  0  0  0  0  0
    0.9685   -3.5029   -2.5692 C   0  0  0  0  0  0  0  0  0  0  0  0
    0.3794   -2.8623   -1.4640 C   0  0  0  0  0  0  0  0  0  0  0  0
    1.1858   -2.2933   -0.4684 C   0  0  0  0  0  0  0  0  0  0  0  0
    0.6689   -1.6295    0.6682 C   0  0  0  0  0  0  0  0  0  0  0  0
    1.5138   -1.0545    1.6785 C   0  0  0  0  0  0  0  0  0  0  0  0
    2.9867   -1.1647    1.5655 C   0  0  0  0  0  0  0  0  0  0  0  0
    3.6597   -2.2792    2.0797 C   0  0  0  0  0  0  0  0  0  0  0  0
    5.0467   -2.3695    1.9790 C   0  0  0  0  0  0  0  0  0  0  0  0
    5.7793   -1.3409    1.3643 C   0  0  0  0  0  0  0  0  0  0  0  0
    7.1725   -1.3948    1.2518 C   0  0  0  0  0  0  0  0  0  0  0  0
    7.8688   -0.3475    0.6384 C   0  0  0  0  0  0  0  0  0  0  0  0
    9.2703   -0.3605    0.5073 C   0  0  0  0  0  0  0  0  0  0  0  0
    9.9567    0.6795   -0.0985 C   0  0  0  0  0  0  0  0  0  0  0  0
   11.2952    0.6174   -0.1965 N   0  0  0  0  0  0  0  0  0  0  0  0
   11.9580    1.6300   -0.7837 C   0  0  0  0  0  0  0  0  0  0  0  0
   13.3414    1.5711   -0.8868 C   0  0  0  0  0  0  0  0  0  0  0  0
   14.0791    2.5955   -1.4877 C   0  0  0  0  0  0  0  0  0  0  0  0
   13.4252    3.7096   -2.0008 C   0  0  0  0  0  0  0  0  0  0  0  0
   12.0377    3.7946   -1.9108 C   0  0  0  0  0  0  0  0  0  0  0  0
   11.3013    2.7608   -1.3051 C   0  0  0  0  0  0  0  0  0  0  0  0
    9.9075    2.8127   -1.1972 C   0  0  0  0  0  0  0  0  0  0  0  0
    9.2108    1.7638   -0.5869 C   0  0  0  0  0  0  0  0  0  0  0  0
    7.8093    1.7763   -0.4567 C   0  0  0  0  0  0  0  0  0  0  0  0
    7.1227    0.7362    0.1494 C   0  0  0  0  0  0  0  0  0  0  0  0
    5.7842    0.7969    0.2489 N   0  0  0  0  0  0  0  0  0  0  0  0
    5.1216   -0.2122    0.8414 C   0  0  0  0  0  0  0  0  0  0  0  0
    3.7388   -0.1481    0.9504 C   0  0  0  0  0  0  0  0  0  0  0  0
    0.9494   -0.3773    2.8053 C   0  0  0  0  0  0  0  0  0  0  0  0
    1.7122    0.2217    3.8413 C   0  0  0  0  0  0  0  0  0  0  0  0
    1.1144    0.8780    4.9199 C   0  0  0  0  0  0  0  0  0  0  0  0
   -0.2674    0.9546    4.9972 C   0  0  0  0  0  0  0  0  0  0  0  0
   -1.0440    0.3737    3.9975 C   0  0  0  0  0  0  0  0  0  0  0  0
   -0.4512   -0.2896    2.9077 C   0  0  0  0  0  0  0  0  0  0  0  0
   -1.2553   -0.8671    1.9166 C   0  0  0  0  0  0  0  0  0  0  0  0
   -0.7366   -1.5422    0.7877 C   0  0  0  0  0  0  0  0  0  0  0  0
   -3.7625   -3.0568    0.5864 C   0  0  0  0  0  0  0  0  0  0  0  0
   -5.1466   -2.9708    0.7206 C   0  0  0  0  0  0  0  0  0  0  0  0
   -5.8404   -1.8708    0.1910 C   0  0  0  0  0  0  0  0  0  0  0  0
   -7.2283   -1.7480    0.3120 C   0  0  0  0  0  0  0  0  0  0  0  0
   -7.8838   -0.6344   -0.2245 C   0  0  0  0  0  0  0  0  0  0  0  0
   -9.2776   -0.4685   -0.1212 C   0  0  0  0  0  0  0  0  0  0  0  0
   -9.9222    0.6378   -0.6507 C   0  0  0  0  0  0  0  0  0  0  0  0
  -11.2545    0.7486   -0.5212 N   0  0  0  0  0  0  0  0  0  0  0  0
  -11.8772    1.8237   -1.0371 C   0  0  0  0  0  0  0  0  0  0  0  0
  -13.2545    1.9431   -0.9063 C   0  0  0  0  0  0  0  0  0  0  0  0
  -13.9513    3.0394   -1.4237 C   0  0  0  0  0  0  0  0  0  0  0  0
  -13.7973    4.9007   -2.4941 H   0  0  0  0  0  0  0  0  0  0  0  0
  -11.3467    4.7430   -2.7575 H   0  0  0  0  0  0  0  0  0  0  0  0
   -9.2263    3.4884   -2.3550 H   0  0  0  0  0  0  0  0  0  0  0  0
   -7.1447    2.1873   -1.9169 H   0  0  0  0  0  0  0  0  0  0  0  0
   -3.2311   -0.1659   -1.1240 H   0  0  0  0  0  0  0  0  0  0  0  0
   -2.8755   -3.3486   -2.3594 H   0  0  0  0  0  0  0  0  0  0  0  0
   -1.8123   -4.4528   -4.2600 H   0  0  0  0  0  0  0  0  0  0  0  0
    0.6621   -4.5621   -4.4201 H   0  0  0  0  0  0  0  0  0  0  0  0
    2.0518   -3.5577   -2.6585 H   0  0  0  0  0  0  0  0  0  0  0  0
    2.2655   -2.3696   -0.5945 H   0  0  0  0  0  0  0  0  0  0  0  0
    3.1017   -3.0792    2.5630 H   0  0  0  0  0  0  0  0  0  0  0  0
    5.5517   -3.2427    2.3859 H   0  0  0  0  0  0  0  0  0  0  0  0
    7.7166   -2.2512    1.6441 H   0  0  0  0  0  0  0  0  0  0  0  0
    9.8469   -1.2015    0.8870 H   0  0  0  0  0  0  0  0  0  0  0  0
   13.8596    0.7023   -0.4877 H   0  0  0  0  0  0  0  0  0  0  0  0
   15.1612    2.5172   -1.5518 H   0  0  0  0  0  0  0  0  0  0  0  0
   13.9926    4.5095   -2.4692 H   0  0  0  0  0  0  0  0  0  0  0  0
   11.5333    4.6694   -2.3145 H   0  0  0  0  0  0  0  0  0  0  0  0
    9.3650    3.6703   -1.5885 H   0  0  0  0  0  0  0  0  0  0  0  0
    7.2333    2.6178   -0.8363 H   0  0  0  0  0  0  0  0  0  0  0  0
    3.2298    0.7263    0.5483 H   0  0  0  0  0  0  0  0  0  0  0  0
    2.7992    0.1864    3.8177 H   0  0  0  0  0  0  0  0  0  0  0  0
    1.7321    1.3284    5.6921 H   0  0  0  0  0  0  0  0  0  0  0  0
   -0.7423    1.4657    5.8299 H   0  0  0  0  0  0  0  0  0  0  0  0
   -2.1275    0.4456    4.0731 H   0  0  0  0  0  0  0  0  0  0  0  0
   -2.3349   -0.7774    2.0343 H   0  0  0  0  0  0  0  0  0  0  0  0
   -3.2339   -3.9122    1.0028 H   0  0  0  0  0  0  0  0  0  0  0  0
   -5.6777   -3.7638    1.2418 H   0  0  0  0  0  0  0  0  0  0  0  0
   -7.7995   -2.5179    0.8261 H   0  0  0  0  0  0  0  0  0  0  0  0
   -9.8813   -1.2184    0.3857 H   0  0  0  0  0  0  0  0  0  0  0  0
  -13.8011    1.1596   -0.3865 H   0  0  0  0  0  0  0  0  0  0  0  0
  -15.0298    3.1013   -1.3035 H   0  0  0  0  0  0  0  0  0  0  0  0
  1  2  4  0
  2  3  4  0
  3  4  4  0
  4  5  4  0
  5  6  4  0
  6  7  4  0
  7  8  4  0
  8  9  4  0
  9 10  4  0
 10 11  4  0
 11 12  1  0
 12 13  4  0
 13 14  4  0
 14 15  4  0
 15 16  4  0
 16 17  4  0
 17 18  4  0
 18 19  4  0
 19 20  4  0
 20 21  4  0
 21 22  1  0
 22 23  4  0
 23 24  4  0
 24 25  4  0
 25 26  4  0
 26 27  4  0
 27 28  4  0
 28 29  4  0
 29 30  4  0
 30 31  4  0
 31 32  4  0
 32 33  4  0
 33 34  4  0
 34 35  4  0
 35 36  4  0
 36 37  4  0
 37 38  4  0
 38 39  4  0
 39 40  4  0
 40 41  4  0
 41 42  4  0
 42 43  4  0
 21 44  4  0
 44 45  4  0
 45 46  4  0
 46 47  4  0
 47 48  4  0
 48 49  4  0
 49 50  4  0
 50 51  4  0
 11 52  4  0
 52 53  4  0
 53 54  4  0
 54 55  4  0
 55 56  4  0
 56 57  4  0
 57 58  4  0
 58 59  4  0
 59 60  4  0
 60 61  4  0
 61 62  4  0
 62  1  4  0
 60  3  4  0
 58  5  4  0
 56  7  4  0
 54  9  4  0
 51 12  4  0
 18 13  4  0
 51 20  4  0
 43 22  4  0
 49 44  4  0
 42 25  4  0
 40 27  4  0
 38 29  4  0
 36 31  4  0
  1 63  1  0
  2 64  1  0
  4 65  1  0
  6 66  1  0
 10 67  1  0
 14 68  1  0
 15 69  1  0
 16 70  1  0
 17 71  1  0
 19 72  1  0
 23 73  1  0
 24 74  1  0
 26 75  1  0
 28 76  1  0
 32 77  1  0
 33 78  1  0
 34 79  1  0
 35 80  1  0
 37 81  1  0
 39 82  1  0
 43 83  1  0
 45 84  1  0
 46 85  1  0
 47 86  1  0
 48 87  1  0
 50 88  1  0
 52 89  1  0
 53 90  1  0
 55 91  1  0
 57 92  1  0
 61 93  1  0
 62 94  1  0
M  END
