
     RDKit          3D

 94107  0  0  0  0  0  0  0  0999 V2000
    2.5870    6.4395    3.8471 C   0  0  0  0  0  0  0  0  0  0  0  0
    2.0600    5.4212    3.0559 C   0  0  0  0  0  0  0  0  0  0  0  0
    2.8329    4.2862    2.7522 C   0  0  0  0  0  0  0  0  0  0  0  0
    2.3351    3.2454    1.9614 C   0  0  0  0  0  0  0  0  0  0  0  0
    3.1357    2.1331    1.6806 C   0  0  0  0  0  0  0  0  0  0  0  0
    2.6737    1.0650    0.8905 C   0  0  0  0  0  0  0  0  0  0  0  0
    3.4727   -0.0325    0.6166 C   0  0  0  0  0  0  0  0  0  0  0  0
    2.9873   -1.0240   -0.1403 N   0  0  0  0  0  0  0  0  0  0  0  0
    3.7365   -2.1164   -0.4039 C   0  0  0  0  0  0  0  0  0  0  0  0
    3.2162   -3.1792   -1.1668 C   0  0  0  0  0  0  0  0  0  0  0  0
    1.8274   -3.1162   -1.6993 C   0  0  0  0  0  0  0  0  0  0  0  0
    1.6131   -2.6971   -3.0503 C   0  0  0  0  0  0  0  0  0  0  0  0
    2.6501   -2.3409   -3.9508 C   0  0  0  0  0  0  0  0  0  0  0  0
    2.3891   -1.9384   -5.2628 C   0  0  0  0  0  0  0  0  0  0  0  0
    1.0805   -1.8762   -5.7157 C   0  0  0  0  0  0  0  0  0  0  0  0
    0.0399   -2.2109   -4.8526 C   0  0  0  0  0  0  0  0  0  0  0  0
    0.2928   -2.6152   -3.5290 C   0  0  0  0  0  0  0  0  0  0  0  0
   -0.7734   -2.9218   -2.6738 C   0  0  0  0  0  0  0  0  0  0  0  0
   -0.6041   -3.3171   -1.3263 C   0  0  0  0  0  0  0  0  0  0  0  0
   -1.7152   -3.5773   -0.4519 C   0  0  0  0  0  0  0  0  0  0  0  0
   -3.1045   -3.3539   -0.9355 C   0  0  0  0  0  0  0  0  0  0  0  0
   -3.6597   -2.0596   -0.9273 C   0  0  0  0  0  0  0  0  0  0  0  0
   -2.9436   -1.0029   -0.4840 N   0  0  0  0  0  0  0  0  0  0  0  0
   -3.4695    0.2280   -0.5006 C   0  0  0  0  0  0  0  0  0  0  0  0
   -2.7087    1.2948   -0.0535 C   0  0  0  0  0  0  0  0  0  0  0  0
   -3.2120    2.6074   -0.0496 C   0  0  0  0  0  0  0  0  0  0  0  0
   -2.4498    3.6897    0.4026 C   0  0  0  0  0  0  0  0  0  0  0  0
   -2.9888    4.9801    0.3895 C   0  0  0  0  0  0  0  0  0  0  0  0
   -2.2566    6.0948    0.8359 C   0  0  0  0  0  0  0  0  0  0  0  0
   -2.8255    7.3660    0.8087 C   0  0  0  0  0  0  0  0  0  0  0  0
   -4.1231    7.5270    0.3375 C   0  0  0  0  0  0  0  0  0  0  0  0
   -4.8461    6.4150   -0.1048 C   0  0  0  0  0  0  0  0  0  0  0  0
   -4.3039    5.1368   -0.0891 C   0  0  0  0  0  0  0  0  0  0  0  0
   -5.0425    4.1010   -0.5258 N   0  0  0  0  0  0  0  0  0  0  0  0
   -4.5139    2.8665   -0.5075 C   0  0  0  0  0  0  0  0  0  0  0  0
   -5.2723    1.7964   -0.9552 C   0  0  0  0  0  0  0  0  0  0  0  0
   -4.7683    0.4823   -0.9582 C   0  0  0  0  0  0  0  0  0  0  0  0
   -5.5216   -0.6067   -1.4109 C   0  0  0  0  0  0  0  0  0  0  0  0
   -4.9756   -1.8962   -1.4055 C   0  0  0  0  0  0  0  0  0  0  0  0
   -5.7128   -2.9990   -1.8697 C   0  0  0  0  0  0  0  0  0  0  0  0
   -5.1520   -4.2717   -1.8728 C   0  0  0  0  0  0  0  0  0  0  0  0
   -3.8532   -4.4487   -1.4108 C   0  0  0  0  0  0  0  0  0  0  0  0
   -1.5028   -4.0002    0.8984 C   0  0  0  0  0  0  0  0  0  0  0  0
   -2.5430   -4.2735    1.8250 C   0  0  0  0  0  0  0  0  0  0  0  0
   -2.2829   -4.6861    3.1342 C   0  0  0  0  0  0  0  0  0  0  0  0
   -0.9717   -4.8299    3.5608 C   0  0  0  0  0  0  0  0  0  0  0  0
    0.0712   -4.5591    2.6779 C   0  0  0  0  0  0  0  0  0  0  0  0
   -0.1813   -4.1469    1.3568 C   0  0  0  0  0  0  0  0  0  0  0  0
    0.8859   -3.8630    0.4945 C   0  0  0  0  0  0  0  0  0  0  0  0
    0.7173   -3.4373   -0.8438 C   0  0  0  0  0  0  0  0  0  0  0  0
    3.9999   -4.3219   -1.4250 C   0  0  0  0  0  0  0  0  0  0  0  0
    5.2984   -4.4163   -0.9382 C   0  0  0  0  0  0  0  0  0  0  0  0
    5.8235   -3.3734   -0.1826 C   0  0  0  0  0  0  0  0  0  0  0  0
    5.0516   -2.2310    0.0907 C   0  0  0  0  0  0  0  0  0  0  0  0
    5.5595   -1.1819    0.8673 C   0  0  0  0  0  0  0  0  0  0  0  0
    4.7677   -0.0625    1.1487 C   0  0  0  0  0  0  0  0  0  0  0  0
    5.2298    1.0066    1.9391 C   0  0  0  0  0  0  0  0  0  0  0  0
    4.4338    2.1073    2.2159 C   0  0  0  0  0  0  0  0  0  0  0  0
    4.9228    3.0998    2.9779 N   0  0  0  0  0  0  0  0  0  0  0  0
    4.1469    4.1665    3.2434 C   0  0  0  0  0  0  0  0  0  0  0  0
    4.6469    5.1962    4.0297 C   0  0  0  0  0  0  0  0  0  0  0  0
    3.8835    6.3271    4.3355 C   0  0  0  0  0  0  0  0  0  0  0  0
    1.9883    7.3160    4.0808 H   0  0  0  0  0  0  0  0  0  0  0  0
    1.0450    5.5156    2.6767 H   0  0  0  0  0  0  0  0  0  0  0  0
    1.3243    3.3006    1.5638 H   0  0  0  0  0  0  0  0  0  0  0  0
    1.6660    1.0807    0.4778 H   0  0  0  0  0  0  0  0  0  0  0  0
    3.6895   -2.3634   -3.6310 H   0  0  0  0  0  0  0  0  0  0  0  0
    3.2104   -1.6696   -5.9211 H   0  0  0  0  0  0  0  0  0  0  0  0
    0.8660   -1.5583   -6.7318 H   0  0  0  0  0  0  0  0  0  0  0  0
   -0.9824   -2.1445   -5.2197 H   0  0  0  0  0  0  0  0  0  0  0  0
   -1.7806   -2.8292   -3.0775 H   0  0  0  0  0  0  0  0  0  0  0  0
   -1.6971    1.0910    0.2949 H   0  0  0  0  0  0  0  0  0  0  0  0
   -1.4375    3.5256    0.7654 H   0  0  0  0  0  0  0  0  0  0  0  0
   -1.2408    5.9777    1.2063 H   0  0  0  0  0  0  0  0  0  0  0  0
   -2.2581    8.2262    1.1540 H   0  0  0  0  0  0  0  0  0  0  0  0
   -4.5783    8.5135    0.3115 H   0  0  0  0  0  0  0  0  0  0  0  0
   -5.8611    6.5497   -0.4713 H   0  0  0  0  0  0  0  0  0  0  0  0
   -6.2803    1.9956   -1.3115 H   0  0  0  0  0  0  0  0  0  0  0  0
   -6.5343   -0.4474   -1.7748 H   0  0  0  0  0  0  0  0  0  0  0  0
   -6.7290   -2.8691   -2.2362 H   0  0  0  0  0  0  0  0  0  0  0  0
   -5.7228   -5.1220   -2.2361 H   0  0  0  0  0  0  0  0  0  0  0  0
   -3.4114   -5.4435   -1.4162 H   0  0  0  0  0  0  0  0  0  0  0  0
   -3.5841   -4.1572    1.5330 H   0  0  0  0  0  0  0  0  0  0  0  0
   -3.1058   -4.8862    3.8150 H   0  0  0  0  0  0  0  0  0  0  0  0
   -0.7564   -5.1421    4.5785 H   0  0  0  0  0  0  0  0  0  0  0  0
    1.0947   -4.6646    3.0325 H   0  0  0  0  0  0  0  0  0  0  0  0
    1.8929   -3.9664    0.8955 H   0  0  0  0  0  0  0  0  0  0  0  0
    3.5854   -5.1398   -2.0119 H   0  0  0  0  0  0  0  0  0  0  0  0
    5.8954   -5.3008   -1.1439 H   0  0  0  0  0  0  0  0  0  0  0  0
    6.8385   -3.4582    0.1999 H   0  0  0  0  0  0  0  0  0  0  0  0
    6.5710   -1.2399    1.2639 H   0  0  0  0  0  0  0  0  0  0  0  0
    6.2354    0.9845    2.3537 H   0  0  0  0  0  0  0  0  0  0  0  0
    5.6605    5.1157    4.4153 H   0  0  0  0  0  0  0  0  0  0  0  0
    4.3062    7.1148    4.9538 H   0  0  0  0  0  0  0  0  0  0  0  0
  1  2  4  0
  2  3  4  0
  3  4  4  0
  4  5  4  0
  5  6  4  0
  6  7  4  0
  7  8  4  0
  8  9  4  0
  9 10  4  0
 10 11  1  0
 11 12  4  0
 12 13  4  0
 13 14  4  0
 14 15  4  0
 15 16  4  0
 16 17  4  0
 17 18  4  0
 18 19  4  0
 19 20  4  0
 20 21  1  0
 21 22  4  0
 22 23  4  0
 23 24  4  0
 24 25  4  0
 25 26  4  0
 26 27  4  0
 27 28  4  0
 28 29  4  0
 29 30  4  0
 30 31  4  0
 31 32  4  0
 32 33  4  0
 33 34  4  0
 34 35  4  0
 35 36  4  0
 36 37  4  0
 37 38  4  0
 38 39  4  0
 39 40  4  0
 40 41  4  0
 41 42  4  0
 20 43  4  0
 43 44  4  0
 44 45  4  0
 45 46  4  0
 46 47  4  0
 47 48  4  0
 48 49  4  0
 49 50  4  0
 10 51  4  0
 51 52  4  0
 52 53  4  0
 53 54  4  0
 54 55  4  0
 55 56  4  0
 56 57  4  0
 57 58  4  0
 58 59  4  0
 59 60  4  0
 60 61  4  0
 61 62  4  0
 62  1  4  0
 60  3  4  0
 58  5  4  0
 56  7  4  0
 54  9  4  0
 50 11  4  0
 17 12  4  0
 50 19  4  0
 42 21  4  0
 48 43  4  0
 39 22  4  0
 37 24  4  0
 35 26  4  0
 33 28  4  0
  1 63  1  0
  2 64  1  0
  4 65  1  0
  6 66  1  0
 13 67  1  0
 14 68  1  0
 15 69  1  0
 16 70  1  0
 18 71  1  0
 25 72  1  0
 27 73  1  0
 29 74  1  0
 30 75  1  0
 31 76  1  0
 32 77  1  0
 36 78  1  0
 38 79  1  0
 40 80  1  0
 41 81  1  0
 42 82  1  0
 44 83  1  0
 45 84  1  0
 46 85  1  0
 47 86  1  0
 49 87  1  0
 51 88  1  0
 52 89  1  0
 53 90  1  0
 55 91  1  0
 57 92  1  0
 61 93  1  0
 62 94  1  0
M  END
