
     RDKit          3D

 94107  0  0  0  0  0  0  0  0999 V2000
   13.4989   -3.2610    1.8559 C   0  0  0  0  0  0  0  0  0  0  0  0
   14.1203   -2.0876    1.4448 C   0  0  0  0  0  0  0  0  0  0  0  0
   13.3574   -1.0488    0.9030 C   0  0  0  0  0  0  0  0  0  0  0  0
   11.9800   -1.1513    0.7594 C   0  0  0  0  0  0  0  0  0  0  0  0
   11.2918   -0.1227    0.2325 N   0  0  0  0  0  0  0  0  0  0  0  0
    9.9599   -0.2272    0.0954 C   0  0  0  0  0  0  0  0  0  0  0  0
    9.2487    0.8303   -0.4477 C   0  0  0  0  0  0  0  0  0  0  0  0
    7.8529    0.7747   -0.6176 C   0  0  0  0  0  0  0  0  0  0  0  0
    7.1315    1.8398   -1.1677 C   0  0  0  0  0  0  0  0  0  0  0  0
    5.7453    1.7414   -1.3236 C   0  0  0  0  0  0  0  0  0  0  0  0
    4.9868    2.7877   -1.8733 C   0  0  0  0  0  0  0  0  0  0  0  0
    3.6078    2.6516   -2.0194 C   0  0  0  0  0  0  0  0  0  0  0  0
    2.9701    1.4714   -1.6202 C   0  0  0  0  0  0  0  0  0  0  0  0
    1.5072    1.3109   -1.7819 C   0  0  0  0  0  0  0  0  0  0  0  0
    0.9955    0.7707   -3.0031 C   0  0  0  0  0  0  0  0  0  0  0  0
    1.8052    0.3614   -4.0941 C   0  0  0  0  0  0  0  0  0  0  0  0
    1.2582   -0.1603   -5.2685 C   0  0  0  0  0  0  0  0  0  0  0  0
   -0.1167   -0.2913   -5.3880 C   0  0  0  0  0  0  0  0  0  0  0  0
   -0.9379    0.0995   -4.3329 C   0  0  0  0  0  0  0  0  0  0  0  0
   -0.3971    0.6277   -3.1465 C   0  0  0  0  0  0  0  0  0  0  0  0
   -1.2444    1.0142   -2.0995 C   0  0  0  0  0  0  0  0  0  0  0  0
   -0.7768    1.5540   -0.8791 C   0  0  0  0  0  0  0  0  0  0  0  0
   -1.6640    1.9479    0.1791 C   0  0  0  0  0  0  0  0  0  0  0  0
   -3.1277    1.8115    0.0092 C   0  0  0  0  0  0  0  0  0  0  0  0
   -3.7966    0.6612    0.4621 C   0  0  0  0  0  0  0  0  0  0  0  0
   -5.1702    0.5100    0.3402 C   0  0  0  0  0  0  0  0  0  0  0  0
   -5.7522   -0.6085    0.8060 N   0  0  0  0  0  0  0  0  0  0  0  0
   -7.0832   -0.7503    0.6965 C   0  0  0  0  0  0  0  0  0  0  0  0
   -7.6865   -1.8994    1.1812 C   0  0  0  0  0  0  0  0  0  0  0  0
   -9.0767   -2.0995    1.0934 C   0  0  0  0  0  0  0  0  0  0  0  0
   -9.6908   -3.2581    1.5818 C   0  0  0  0  0  0  0  0  0  0  0  0
  -11.0765   -3.4164    1.4743 C   0  0  0  0  0  0  0  0  0  0  0  0
  -11.7321   -4.5653    1.9520 C   0  0  0  0  0  0  0  0  0  0  0  0
  -13.1141   -4.6890    1.8277 C   0  0  0  0  0  0  0  0  0  0  0  0
  -13.8430   -3.6688    1.2277 C   0  0  0  0  0  0  0  0  0  0  0  0
  -13.1853   -2.5291    0.7548 C   0  0  0  0  0  0  0  0  0  0  0  0
  -11.8095   -2.3798    0.8658 C   0  0  0  0  0  0  0  0  0  0  0  0
  -11.2263   -1.2632    0.3943 N   0  0  0  0  0  0  0  0  0  0  0  0
   -9.8953   -1.1235    0.5033 C   0  0  0  0  0  0  0  0  0  0  0  0
   -9.2919    0.0253    0.0184 C   0  0  0  0  0  0  0  0  0  0  0  0
   -7.9020    0.2255    0.1067 C   0  0  0  0  0  0  0  0  0  0  0  0
   -7.2889    1.3854   -0.3790 C   0  0  0  0  0  0  0  0  0  0  0  0
   -5.9043    1.5463   -0.2663 C   0  0  0  0  0  0  0  0  0  0  0  0
   -5.2538    2.6996   -0.7336 C   0  0  0  0  0  0  0  0  0  0  0  0
   -3.8742    2.8310   -0.5927 C   0  0  0  0  0  0  0  0  0  0  0  0
   -1.1524    2.4781    1.4047 C   0  0  0  0  0  0  0  0  0  0  0  0
   -1.9624    2.8842    2.4969 C   0  0  0  0  0  0  0  0  0  0  0  0
   -1.4157    3.3917    3.6774 C   0  0  0  0  0  0  0  0  0  0  0  0
   -0.0404    3.5110    3.8020 C   0  0  0  0  0  0  0  0  0  0  0  0
    0.7809    3.1234    2.7458 C   0  0  0  0  0  0  0  0  0  0  0  0
    0.2402    2.6106    1.5527 C   0  0  0  0  0  0  0  0  0  0  0  0
    1.0872    2.2275    0.5042 C   0  0  0  0  0  0  0  0  0  0  0  0
    0.6200    1.6981   -0.7209 C   0  0  0  0  0  0  0  0  0  0  0  0
    3.7471    0.4376   -1.0691 C   0  0  0  0  0  0  0  0  0  0  0  0
    5.1215    0.5491   -0.9119 C   0  0  0  0  0  0  0  0  0  0  0  0
    5.8071   -0.4765   -0.3784 N   0  0  0  0  0  0  0  0  0  0  0  0
    7.1387   -0.3713   -0.2341 C   0  0  0  0  0  0  0  0  0  0  0  0
    7.8498   -1.4280    0.3116 C   0  0  0  0  0  0  0  0  0  0  0  0
    9.2459   -1.3728    0.4809 C   0  0  0  0  0  0  0  0  0  0  0  0
    9.9686   -2.4381    1.0294 C   0  0  0  0  0  0  0  0  0  0  0  0
   11.3563   -2.3422    1.1775 C   0  0  0  0  0  0  0  0  0  0  0  0
   12.1183   -3.3906    1.7234 C   0  0  0  0  0  0  0  0  0  0  0  0
   14.0861   -4.0723    2.2780 H   0  0  0  0  0  0  0  0  0  0  0  0
   15.1967   -1.9741    1.5429 H   0  0  0  0  0  0  0  0  0  0  0  0
   13.8507   -0.1338    0.5838 H   0  0  0  0  0  0  0  0  0  0  0  0
    9.8009    1.7188   -0.7465 H   0  0  0  0  0  0  0  0  0  0  0  0
    7.6504    2.7444   -1.4770 H   0  0  0  0  0  0  0  0  0  0  0  0
    5.4643    3.7114   -2.1924 H   0  0  0  0  0  0  0  0  0  0  0  0
    3.0283    3.4666   -2.4490 H   0  0  0  0  0  0  0  0  0  0  0  0
    2.8892    0.4430   -4.0394 H   0  0  0  0  0  0  0  0  0  0  0  0
    1.9105   -0.4639   -6.0828 H   0  0  0  0  0  0  0  0  0  0  0  0
   -0.5513   -0.6977   -6.2970 H   0  0  0  0  0  0  0  0  0  0  0  0
   -2.0148   -0.0134   -4.4432 H   0  0  0  0  0  0  0  0  0  0  0  0
   -2.3159    0.8815   -2.2475 H   0  0  0  0  0  0  0  0  0  0  0  0
   -3.2287   -0.1392    0.9337 H   0  0  0  0  0  0  0  0  0  0  0  0
   -7.0532   -2.6559    1.6397 H   0  0  0  0  0  0  0  0  0  0  0  0
   -9.0898   -4.0369    2.0456 H   0  0  0  0  0  0  0  0  0  0  0  0
  -11.1687   -5.3678    2.4227 H   0  0  0  0  0  0  0  0  0  0  0  0
  -13.6192   -5.5776    2.1977 H   0  0  0  0  0  0  0  0  0  0  0  0
  -14.9217   -3.7533    1.1247 H   0  0  0  0  0  0  0  0  0  0  0  0
  -13.7617   -1.7347    0.2865 H   0  0  0  0  0  0  0  0  0  0  0  0
   -9.9255    0.7824   -0.4388 H   0  0  0  0  0  0  0  0  0  0  0  0
   -7.8907    2.1646   -0.8413 H   0  0  0  0  0  0  0  0  0  0  0  0
   -5.8163    3.5029   -1.2037 H   0  0  0  0  0  0  0  0  0  0  0  0
   -3.3796    3.7322   -0.9502 H   0  0  0  0  0  0  0  0  0  0  0  0
   -3.0466    2.8047    2.4416 H   0  0  0  0  0  0  0  0  0  0  0  0
   -2.0686    3.6876    4.4941 H   0  0  0  0  0  0  0  0  0  0  0  0
    0.3954    3.9009    4.7174 H   0  0  0  0  0  0  0  0  0  0  0  0
    1.8586    3.2213    2.8623 H   0  0  0  0  0  0  0  0  0  0  0  0
    2.1593    2.3458    0.6588 H   0  0  0  0  0  0  0  0  0  0  0  0
    3.2641   -0.4862   -0.7547 H   0  0  0  0  0  0  0  0  0  0  0  0
    7.2974   -2.3168    0.6094 H   0  0  0  0  0  0  0  0  0  0  0  0
    9.4510   -3.3425    1.3408 H   0  0  0  0  0  0  0  0  0  0  0  0
   11.6393   -4.3118    2.0472 H   0  0  0  0  0  0  0  0  0  0  0  0
  1  2  4  0
  2  3  4  0
  3  4  4  0
  4  5  4  0
  5  6  4  0
  6  7  4  0
  7  8  4  0
  8  9  4  0
  9 10  4  0
 10 11  4  0
 11 12  4  0
 12 13  4  0
 13 14  1  0
 14 15  4  0
 15 16  4  0
 16 17  4  0
 17 18  4  0
 18 19  4  0
 19 20  4  0
 20 21  4  0
 21 22  4  0
 22 23  4  0
 23 24  1  0
 24 25  4  0
 25 26  4  0
 26 27  4  0
 27 28  4  0
 28 29  4  0
 29 30  4  0
 30 31  4  0
 31 32  4  0
 32 33  4  0
 33 34  4  0
 34 35  4  0
 35 36  4  0
 36 37  4  0
 37 38  4  0
 38 39  4  0
 39 40  4  0
 40 41  4  0
 41 42  4  0
 42 43  4  0
 43 44  4  0
 44 45  4  0
 23 46  4  0
 46 47  4  0
 47 48  4  0
 48 49  4  0
 49 50  4  0
 50 51  4  0
 51 52  4  0
 52 53  4  0
 13 54  4  0
 54 55  4  0
 55 56  4  0
 56 57  4  0
 57 58  4  0
 58 59  4  0
 59 60  4  0
 60 61  4  0
 61 62  4  0
 62  1  4  0
 61  4  4  0
 59  6  4  0
 57  8  4  0
 55 10  4  0
 53 14  4  0
 20 15  4  0
 53 22  4  0
 45 24  4  0
 51 46  4  0
 43 26  4  0
 41 28  4  0
 39 30  4  0
 37 32  4  0
  1 63  1  0
  2 64  1  0
  3 65  1  0
  7 66  1  0
  9 67  1  0
 11 68  1  0
 12 69  1  0
 16 70  1  0
 17 71  1  0
 18 72  1  0
 19 73  1  0
 21 74  1  0
 25 75  1  0
 29 76  1  0
 31 77  1  0
 33 78  1  0
 34 79  1  0
 35 80  1  0
 36 81  1  0
 40 82  1  0
 42 83  1  0
 44 84  1  0
 45 85  1  0
 47 86  1  0
 48 87  1  0
 49 88  1  0
 50 89  1  0
 52 90  1  0
 54 91  1  0
 58 92  1  0
 60 93  1  0
 62 94  1  0
M  END
