
     RDKit          3D

 94107  0  0  0  0  0  0  0  0999 V2000
    4.2394   -1.0827   -6.0485 C   0  0  0  0  0  0  0  0  0  0  0  0
    5.6094   -0.8974   -5.9034 C   0  0  0  0  0  0  0  0  0  0  0  0
    6.1593   -0.7525   -4.6264 C   0  0  0  0  0  0  0  0  0  0  0  0
    5.3708   -0.7886   -3.4831 C   0  0  0  0  0  0  0  0  0  0  0  0
    5.9434   -0.6427   -2.2772 N   0  0  0  0  0  0  0  0  0  0  0  0
    5.1793   -0.6768   -1.1733 C   0  0  0  0  0  0  0  0  0  0  0  0
    5.8060   -0.5186    0.0473 C   0  0  0  0  0  0  0  0  0  0  0  0
    5.1001   -0.5329    1.2589 C   0  0  0  0  0  0  0  0  0  0  0  0
    5.7678   -0.3660    2.4789 C   0  0  0  0  0  0  0  0  0  0  0  0
    5.0552   -0.3758    3.6805 C   0  0  0  0  0  0  0  0  0  0  0  0
    5.6875   -0.2128    4.9273 C   0  0  0  0  0  0  0  0  0  0  0  0
    4.9388   -0.2288    6.1021 C   0  0  0  0  0  0  0  0  0  0  0  0
    3.5617   -0.4072    6.0341 C   0  0  0  0  0  0  0  0  0  0  0  0
    2.9417   -0.5692    4.7914 C   0  0  0  0  0  0  0  0  0  0  0  0
    3.6652   -0.5564    3.6067 C   0  0  0  0  0  0  0  0  0  0  0  0
    3.0234   -0.7179    2.4378 N   0  0  0  0  0  0  0  0  0  0  0  0
    3.7078   -0.7125    1.2719 C   0  0  0  0  0  0  0  0  0  0  0  0
    3.0520   -0.8802    0.0344 C   0  0  0  0  0  0  0  0  0  0  0  0
    1.5686   -1.0712    0.0235 C   0  0  0  0  0  0  0  0  0  0  0  0
    1.0320   -2.3959    0.0840 C   0  0  0  0  0  0  0  0  0  0  0  0
    1.8200   -3.5730    0.1642 C   0  0  0  0  0  0  0  0  0  0  0  0
    1.2472   -4.8457    0.2171 C   0  0  0  0  0  0  0  0  0  0  0  0
   -0.1320   -4.9823    0.1919 C   0  0  0  0  0  0  0  0  0  0  0  0
   -0.9325   -3.8448    0.1147 C   0  0  0  0  0  0  0  0  0  0  0  0
   -0.3658   -2.5581    0.0606 C   0  0  0  0  0  0  0  0  0  0  0  0
   -1.1933   -1.4295   -0.0167 C   0  0  0  0  0  0  0  0  0  0  0  0
   -0.7016   -0.1050   -0.0704 C   0  0  0  0  0  0  0  0  0  0  0  0
   -1.5686    1.0399   -0.1308 C   0  0  0  0  0  0  0  0  0  0  0  0
   -3.0524    0.8596   -0.0731 C   0  0  0  0  0  0  0  0  0  0  0  0
   -3.7785    0.7244   -1.2738 C   0  0  0  0  0  0  0  0  0  0  0  0
   -3.1627    0.7393   -2.4767 N   0  0  0  0  0  0  0  0  0  0  0  0
   -3.8720    0.6099   -3.6099 C   0  0  0  0  0  0  0  0  0  0  0  0
   -3.2160    0.6283   -4.8336 C   0  0  0  0  0  0  0  0  0  0  0  0
   -3.9098    0.4990   -6.0411 C   0  0  0  0  0  0  0  0  0  0  0  0
   -5.2917    0.3463   -6.0324 C   0  0  0  0  0  0  0  0  0  0  0  0
   -5.9722    0.3240   -4.8171 C   0  0  0  0  0  0  0  0  0  0  0  0
   -5.2669    0.4552   -3.6067 C   0  0  0  0  0  0  0  0  0  0  0  0
   -5.9104    0.4384   -2.3671 C   0  0  0  0  0  0  0  0  0  0  0  0
   -5.1720    0.5725   -1.1849 C   0  0  0  0  0  0  0  0  0  0  0  0
   -5.8116    0.5566    0.0630 C   0  0  0  0  0  0  0  0  0  0  0  0
   -5.1154    0.6841    1.2488 C   0  0  0  0  0  0  0  0  0  0  0  0
   -5.8183    0.6564    2.3932 N   0  0  0  0  0  0  0  0  0  0  0  0
   -5.1736    0.7685    3.5663 C   0  0  0  0  0  0  0  0  0  0  0  0
   -5.8946    0.7344    4.7524 C   0  0  0  0  0  0  0  0  0  0  0  0
   -5.2679    0.8438    5.9975 C   0  0  0  0  0  0  0  0  0  0  0  0
   -3.8873    0.9899    6.0666 C   0  0  0  0  0  0  0  0  0  0  0  0
   -3.1416    1.0269    4.8911 C   0  0  0  0  0  0  0  0  0  0  0  0
   -3.7803    0.9182    3.6426 C   0  0  0  0  0  0  0  0  0  0  0  0
   -3.0659    0.9523    2.4404 C   0  0  0  0  0  0  0  0  0  0  0  0
   -3.7205    0.8346    1.1959 C   0  0  0  0  0  0  0  0  0  0  0  0
   -1.0292    2.3643   -0.1953 C   0  0  0  0  0  0  0  0  0  0  0  0
   -1.8133    3.5446   -0.2659 C   0  0  0  0  0  0  0  0  0  0  0  0
   -1.2370    4.8163   -0.3095 C   0  0  0  0  0  0  0  0  0  0  0  0
    0.1426    4.9484   -0.2842 C   0  0  0  0  0  0  0  0  0  0  0  0
    0.9393    3.8083   -0.2205 C   0  0  0  0  0  0  0  0  0  0  0  0
    0.3685    2.5237   -0.1771 C   0  0  0  0  0  0  0  0  0  0  0  0
    1.1935    1.3945   -0.1065 C   0  0  0  0  0  0  0  0  0  0  0  0
    0.7001    0.0711   -0.0525 C   0  0  0  0  0  0  0  0  0  0  0  0
    3.7876   -0.8606   -1.1962 C   0  0  0  0  0  0  0  0  0  0  0  0
    3.2073   -1.0119   -2.4735 C   0  0  0  0  0  0  0  0  0  0  0  0
    3.9885   -0.9775   -3.6350 C   0  0  0  0  0  0  0  0  0  0  0  0
    3.4279   -1.1238   -4.9167 C   0  0  0  0  0  0  0  0  0  0  0  0
    3.8034   -1.1952   -7.0376 H   0  0  0  0  0  0  0  0  0  0  0  0
    6.2537   -0.8639   -6.7779 H   0  0  0  0  0  0  0  0  0  0  0  0
    7.2317   -0.6072   -4.5197 H   0  0  0  0  0  0  0  0  0  0  0  0
    6.8852   -0.3755    0.0486 H   0  0  0  0  0  0  0  0  0  0  0  0
    6.8467   -0.2269    2.4938 H   0  0  0  0  0  0  0  0  0  0  0  0
    6.7646   -0.0740    4.9869 H   0  0  0  0  0  0  0  0  0  0  0  0
    5.4273   -0.1029    7.0648 H   0  0  0  0  0  0  0  0  0  0  0  0
    2.9643   -0.4219    6.9419 H   0  0  0  0  0  0  0  0  0  0  0  0
    1.8644   -0.7107    4.7439 H   0  0  0  0  0  0  0  0  0  0  0  0
    2.9058   -3.5119    0.1929 H   0  0  0  0  0  0  0  0  0  0  0  0
    1.8837   -5.7239    0.2803 H   0  0  0  0  0  0  0  0  0  0  0  0
   -0.5853   -5.9688    0.2341 H   0  0  0  0  0  0  0  0  0  0  0  0
   -2.0136   -3.9696    0.0982 H   0  0  0  0  0  0  0  0  0  0  0  0
   -2.2687   -1.5992   -0.0391 H   0  0  0  0  0  0  0  0  0  0  0  0
   -2.1349    0.7484   -4.8452 H   0  0  0  0  0  0  0  0  0  0  0  0
   -3.3670    0.5202   -6.9824 H   0  0  0  0  0  0  0  0  0  0  0  0
   -5.8374    0.2461   -6.9669 H   0  0  0  0  0  0  0  0  0  0  0  0
   -7.0532    0.2053   -4.8169 H   0  0  0  0  0  0  0  0  0  0  0  0
   -6.9912    0.3208   -2.3229 H   0  0  0  0  0  0  0  0  0  0  0  0
   -6.8926    0.4390    0.1187 H   0  0  0  0  0  0  0  0  0  0  0  0
   -6.9748    0.6188    4.7059 H   0  0  0  0  0  0  0  0  0  0  0  0
   -5.8618    0.8131    6.9071 H   0  0  0  0  0  0  0  0  0  0  0  0
   -3.3929    1.0739    7.0309 H   0  0  0  0  0  0  0  0  0  0  0  0
   -2.0602    1.1369    4.9489 H   0  0  0  0  0  0  0  0  0  0  0  0
   -1.9841    1.0692    2.4791 H   0  0  0  0  0  0  0  0  0  0  0  0
   -2.8991    3.4867   -0.2947 H   0  0  0  0  0  0  0  0  0  0  0  0
   -1.8711    5.6964   -0.3661 H   0  0  0  0  0  0  0  0  0  0  0  0
    0.6014    5.9323   -0.3165 H   0  0  0  0  0  0  0  0  0  0  0  0
    2.0207    3.9302   -0.2039 H   0  0  0  0  0  0  0  0  0  0  0  0
    2.2689    1.5640   -0.0871 H   0  0  0  0  0  0  0  0  0  0  0  0
    2.1324   -1.1561   -2.5697 H   0  0  0  0  0  0  0  0  0  0  0  0
    2.3563   -1.2690   -5.0360 H   0  0  0  0  0  0  0  0  0  0  0  0
  1  2  4  0
  2  3  4  0
  3  4  4  0
  4  5  4  0
  5  6  4  0
  6  7  4  0
  7  8  4  0
  8  9  4  0
  9 10  4  0
 10 11  4  0
 11 12  4  0
 12 13  4  0
 13 14  4  0
 14 15  4  0
 15 16  4  0
 16 17  4  0
 17 18  4  0
 18 19  1  0
 19 20  4  0
 20 21  4  0
 21 22  4  0
 22 23  4  0
 23 24  4  0
 24 25  4  0
 25 26  4  0
 26 27  4  0
 27 28  4  0
 28 29  1  0
 29 30  4  0
 30 31  4  0
 31 32  4  0
 32 33  4  0
 33 34  4  0
 34 35  4  0
 35 36  4  0
 36 37  4  0
 37 38  4  0
 38 39  4  0
 39 40  4  0
 40 41  4  0
 41 42  4  0
 42 43  4  0
 43 44  4  0
 44 45  4  0
 45 46  4  0
 46 47  4  0
 47 48  4  0
 48 49  4  0
 49 50  4  0
 28 51  4  0
 51 52  4  0
 52 53  4  0
 53 54  4  0
 54 55  4  0
 55 56  4  0
 56 57  4  0
 57 58  4  0
 18 59  4  0
 59 60  4  0
 60 61  4  0
 61 62  4  0
 62  1  4  0
 61  4  4  0
 59  6  4  0
 17  8  4  0
 58 19  4  0
 15 10  4  0
 25 20  4  0
 58 27  4  0
 50 29  4  0
 56 51  4  0
 39 30  4  0
 50 41  4  0
 37 32  4  0
 48 43  4  0
  1 63  1  0
  2 64  1  0
  3 65  1  0
  7 66  1  0
  9 67  1  0
 11 68  1  0
 12 69  1  0
 13 70  1  0
 14 71  1  0
 21 72  1  0
 22 73  1  0
 23 74  1  0
 24 75  1  0
 26 76  1  0
 33 77  1  0
 34 78  1  0
 35 79  1  0
 36 80  1  0
 38 81  1  0
 40 82  1  0
 44 83  1  0
 45 84  1  0
 46 85  1  0
 47 86  1  0
 49 87  1  0
 52 88  1  0
 53 89  1  0
 54 90  1  0
 55 91  1  0
 57 92  1  0
 60 93  1  0
 62 94  1  0
M  END
