
     RDKit          3D

 94107  0  0  0  0  0  0  0  0999 V2000
    8.9101    3.2092    4.6442 C   0  0  0  0  0  0  0  0  0  0  0  0
    7.7409    3.2091    5.3959 C   0  0  0  0  0  0  0  0  0  0  0  0
    6.5407    2.7858    4.8160 C   0  0  0  0  0  0  0  0  0  0  0  0
    6.4764    2.3592    3.4959 C   0  0  0  0  0  0  0  0  0  0  0  0
    5.2978    1.9604    2.9843 N   0  0  0  0  0  0  0  0  0  0  0  0
    5.2411    1.5434    1.7072 C   0  0  0  0  0  0  0  0  0  0  0  0
    4.0353    1.1076    1.1716 C   0  0  0  0  0  0  0  0  0  0  0  0
    3.8921    0.5895   -0.1468 C   0  0  0  0  0  0  0  0  0  0  0  0
    5.0106    0.7265   -0.9872 C   0  0  0  0  0  0  0  0  0  0  0  0
    6.2302    1.1223   -0.4620 C   0  0  0  0  0  0  0  0  0  0  0  0
    6.3642    1.5181    0.8762 C   0  0  0  0  0  0  0  0  0  0  0  0
    7.5887    1.9345    1.4110 C   0  0  0  0  0  0  0  0  0  0  0  0
    7.6636    2.3618    2.7404 C   0  0  0  0  0  0  0  0  0  0  0  0
    8.8740    2.7869    3.3172 C   0  0  0  0  0  0  0  0  0  0  0  0
    4.9473    0.5593   -2.3052 N   0  0  0  0  0  0  0  0  0  0  0  0
    3.7379    0.5412   -2.8609 C   0  0  0  0  0  0  0  0  0  0  0  0
    3.6625    0.7466   -4.2332 C   0  0  0  0  0  0  0  0  0  0  0  0
    2.4433    0.9140   -4.8869 C   0  0  0  0  0  0  0  0  0  0  0  0
    1.2740    0.9049   -4.1469 C   0  0  0  0  0  0  0  0  0  0  0  0
    1.3365    0.6625   -2.7738 C   0  0  0  0  0  0  0  0  0  0  0  0
    2.5604    0.3859   -2.1031 C   0  0  0  0  0  0  0  0  0  0  0  0
    2.7030    0.0407   -0.7206 C   0  0  0  0  0  0  0  0  0  0  0  0
    1.6302   -0.7769    0.0700 C   0  0  0  0  0  0  0  0  0  0  0  0
    1.7002   -1.0491    1.4706 C   0  0  0  0  0  0  0  0  0  0  0  0
    2.8844   -1.3156    2.2053 C   0  0  0  0  0  0  0  0  0  0  0  0
    2.8939   -1.4593    3.5959 C   0  0  0  0  0  0  0  0  0  0  0  0
    1.7036   -1.3879    4.3002 C   0  0  0  0  0  0  0  0  0  0  0  0
    0.5077   -1.2578    3.6020 C   0  0  0  0  0  0  0  0  0  0  0  0
    0.4984   -1.1575    2.1996 C   0  0  0  0  0  0  0  0  0  0  0  0
   -0.7103   -1.2521    1.5162 C   0  0  0  0  0  0  0  0  0  0  0  0
   -0.7269   -1.5271    0.1402 C   0  0  0  0  0  0  0  0  0  0  0  0
   -1.9073   -1.9985   -0.5311 C   0  0  0  0  0  0  0  0  0  0  0  0
   -3.2072   -2.0762    0.2027 C   0  0  0  0  0  0  0  0  0  0  0  0
   -3.5487   -3.2497    0.9360 C   0  0  0  0  0  0  0  0  0  0  0  0
   -2.7278   -4.4036    1.0284 C   0  0  0  0  0  0  0  0  0  0  0  0
   -3.1203   -5.5183    1.7670 C   0  0  0  0  0  0  0  0  0  0  0  0
   -4.3389   -5.5029    2.4265 C   0  0  0  0  0  0  0  0  0  0  0  0
   -5.1532   -4.3726    2.3416 C   0  0  0  0  0  0  0  0  0  0  0  0
   -4.7824   -3.2510    1.6116 C   0  0  0  0  0  0  0  0  0  0  0  0
   -5.6273   -2.2119    1.5871 N   0  0  0  0  0  0  0  0  0  0  0  0
   -5.3116   -1.1141    0.8904 C   0  0  0  0  0  0  0  0  0  0  0  0
   -6.2218   -0.0693    0.8835 C   0  0  0  0  0  0  0  0  0  0  0  0
   -5.9850    1.1198    0.1738 C   0  0  0  0  0  0  0  0  0  0  0  0
   -6.9054    2.1745    0.1602 C   0  0  0  0  0  0  0  0  0  0  0  0
   -6.6284    3.3379   -0.5655 C   0  0  0  0  0  0  0  0  0  0  0  0
   -7.5252    4.4208   -0.6067 C   0  0  0  0  0  0  0  0  0  0  0  0
   -7.2152    5.5627   -1.3422 C   0  0  0  0  0  0  0  0  0  0  0  0
   -6.0123    5.6263   -2.0361 C   0  0  0  0  0  0  0  0  0  0  0  0
   -5.1247    4.5467   -1.9906 C   0  0  0  0  0  0  0  0  0  0  0  0
   -5.4088    3.3971   -1.2655 C   0  0  0  0  0  0  0  0  0  0  0  0
   -4.5209    2.3880   -1.2537 N   0  0  0  0  0  0  0  0  0  0  0  0
   -4.7983    1.2763   -0.5523 C   0  0  0  0  0  0  0  0  0  0  0  0
   -3.8874    0.2309   -0.5364 C   0  0  0  0  0  0  0  0  0  0  0  0
   -4.1139   -0.9783    0.1725 C   0  0  0  0  0  0  0  0  0  0  0  0
   -1.8403   -2.4471   -1.8858 C   0  0  0  0  0  0  0  0  0  0  0  0
   -2.9514   -2.9289   -2.6238 C   0  0  0  0  0  0  0  0  0  0  0  0
   -2.8233   -3.3897   -3.9357 C   0  0  0  0  0  0  0  0  0  0  0  0
   -1.5792   -3.3883   -4.5477 C   0  0  0  0  0  0  0  0  0  0  0  0
   -0.4698   -2.9220   -3.8470 C   0  0  0  0  0  0  0  0  0  0  0  0
   -0.5902   -2.4477   -2.5292 C   0  0  0  0  0  0  0  0  0  0  0  0
    0.5361   -1.9565   -1.8544 C   0  0  0  0  0  0  0  0  0  0  0  0
    0.4942   -1.3888   -0.5605 C   0  0  0  0  0  0  0  0  0  0  0  0
    9.8461    3.5376    5.0886 H   0  0  0  0  0  0  0  0  0  0  0  0
    7.7553    3.5372    6.4320 H   0  0  0  0  0  0  0  0  0  0  0  0
    5.6297    2.7892    5.4099 H   0  0  0  0  0  0  0  0  0  0  0  0
    3.1586    1.1997    1.8115 H   0  0  0  0  0  0  0  0  0  0  0  0
    7.0866    1.1744   -1.1318 H   0  0  0  0  0  0  0  0  0  0  0  0
    8.4815    1.9316    0.7900 H   0  0  0  0  0  0  0  0  0  0  0  0
    9.7921    2.7910    2.7342 H   0  0  0  0  0  0  0  0  0  0  0  0
    4.5861    0.8266   -4.8028 H   0  0  0  0  0  0  0  0  0  0  0  0
    2.4181    1.0970   -5.9574 H   0  0  0  0  0  0  0  0  0  0  0  0
    0.3139    1.0857   -4.6238 H   0  0  0  0  0  0  0  0  0  0  0  0
    0.4042    0.7098   -2.2128 H   0  0  0  0  0  0  0  0  0  0  0  0
    3.8331   -1.4324    1.6852 H   0  0  0  0  0  0  0  0  0  0  0  0
    3.8338   -1.6189    4.1180 H   0  0  0  0  0  0  0  0  0  0  0  0
    1.6997   -1.4830    5.3820 H   0  0  0  0  0  0  0  0  0  0  0  0
   -0.4264   -1.2897    4.1597 H   0  0  0  0  0  0  0  0  0  0  0  0
   -1.6271   -1.3133    2.0990 H   0  0  0  0  0  0  0  0  0  0  0  0
   -1.7652   -4.4419    0.5211 H   0  0  0  0  0  0  0  0  0  0  0  0
   -2.4751   -6.3911    1.8227 H   0  0  0  0  0  0  0  0  0  0  0  0
   -4.6618   -6.3634    3.0062 H   0  0  0  0  0  0  0  0  0  0  0  0
   -6.1089   -4.3672    2.8615 H   0  0  0  0  0  0  0  0  0  0  0  0
   -7.1454   -0.1905    1.4466 H   0  0  0  0  0  0  0  0  0  0  0  0
   -7.8379    2.0887    0.7131 H   0  0  0  0  0  0  0  0  0  0  0  0
   -8.4683    4.3790   -0.0665 H   0  0  0  0  0  0  0  0  0  0  0  0
   -7.9094    6.3987   -1.3736 H   0  0  0  0  0  0  0  0  0  0  0  0
   -5.7593    6.5118   -2.6137 H   0  0  0  0  0  0  0  0  0  0  0  0
   -4.1853    4.6027   -2.5358 H   0  0  0  0  0  0  0  0  0  0  0  0
   -2.9697    0.3683   -1.1057 H   0  0  0  0  0  0  0  0  0  0  0  0
   -3.9442   -2.9546   -2.1787 H   0  0  0  0  0  0  0  0  0  0  0  0
   -3.6970   -3.7498   -4.4721 H   0  0  0  0  0  0  0  0  0  0  0  0
   -1.4699   -3.7447   -5.5680 H   0  0  0  0  0  0  0  0  0  0  0  0
    0.4983   -2.9176   -4.3449 H   0  0  0  0  0  0  0  0  0  0  0  0
    1.4982   -2.0226   -2.3641 H   0  0  0  0  0  0  0  0  0  0  0  0
  1  2  4  0
  2  3  4  0
  3  4  4  0
  4  5  4  0
  5  6  4  0
  6  7  4  0
  7  8  4  0
  8  9  4  0
  9 10  4  0
 10 11  4  0
 11 12  4  0
 12 13  4  0
 13 14  4  0
  9 15  4  0
 15 16  4  0
 16 17  4  0
 17 18  4  0
 18 19  4  0
 19 20  4  0
 20 21  4  0
 21 22  4  0
 22 23  1  0
 23 24  4  0
 24 25  4  0
 25 26  4  0
 26 27  4  0
 27 28  4  0
 28 29  4  0
 29 30  4  0
 30 31  4  0
 31 32  4  0
 32 33  1  0
 33 34  4  0
 34 35  4  0
 35 36  4  0
 36 37  4  0
 37 38  4  0
 38 39  4  0
 39 40  4  0
 40 41  4  0
 41 42  4  0
 42 43  4  0
 43 44  4  0
 44 45  4  0
 45 46  4  0
 46 47  4  0
 47 48  4  0
 48 49  4  0
 49 50  4  0
 50 51  4  0
 51 52  4  0
 52 53  4  0
 53 54  4  0
 32 55  4  0
 55 56  4  0
 56 57  4  0
 57 58  4  0
 58 59  4  0
 59 60  4  0
 60 61  4  0
 61 62  4  0
 14  1  4  0
 21 16  4  0
 62 23  4  0
 13  4  4  0
 29 24  4  0
 62 31  4  0
 11  6  4  0
 54 33  4  0
 60 55  4  0
 22  8  4  0
 39 34  4  0
 54 41  4  0
 52 43  4  0
 50 45  4  0
  1 63  1  0
  2 64  1  0
  3 65  1  0
  7 66  1  0
 10 67  1  0
 12 68  1  0
 14 69  1  0
 17 70  1  0
 18 71  1  0
 19 72  1  0
 20 73  1  0
 25 74  1  0
 26 75  1  0
 27 76  1  0
 28 77  1  0
 30 78  1  0
 35 79  1  0
 36 80  1  0
 37 81  1  0
 38 82  1  0
 42 83  1  0
 44 84  1  0
 46 85  1  0
 47 86  1  0
 48 87  1  0
 49 88  1  0
 53 89  1  0
 56 90  1  0
 57 91  1  0
 58 92  1  0
 59 93  1  0
 61 94  1  0
M  END
