
     RDKit          3D

 90103  0  0  0  0  0  0  0  0999 V2000
    8.1118    2.1051   -1.6037 C   0  0  0  0  0  0  0  0  0  0  0  0
    7.1119    3.0234   -1.3588 C   0  0  0  0  0  0  0  0  0  0  0  0
    5.8862    2.6020   -0.8431 C   0  0  0  0  0  0  0  0  0  0  0  0
    5.6290    1.2166   -0.5586 C   0  0  0  0  0  0  0  0  0  0  0  0
    6.6558    0.2726   -0.8013 C   0  0  0  0  0  0  0  0  0  0  0  0
    7.8844    0.7608   -1.3274 C   0  0  0  0  0  0  0  0  0  0  0  0
    6.4287   -1.1063   -0.5133 C   0  0  0  0  0  0  0  0  0  0  0  0
    7.4337   -2.0907   -0.7152 C   0  0  0  0  0  0  0  0  0  0  0  0
    7.2392   -3.4400   -0.4484 C   0  0  0  0  0  0  0  0  0  0  0  0
    6.0183   -3.8601    0.0332 C   0  0  0  0  0  0  0  0  0  0  0  0
    4.9943   -2.9380    0.2504 C   0  0  0  0  0  0  0  0  0  0  0  0
    5.1667   -1.5358   -0.0097 C   0  0  0  0  0  0  0  0  0  0  0  0
    4.0985   -0.6108    0.2292 C   0  0  0  0  0  0  0  0  0  0  0  0
    2.8559   -1.1977    0.7110 C   0  0  0  0  0  0  0  0  0  0  0  0
    1.5904   -0.4581    0.9743 C   0  0  0  0  0  0  0  0  0  0  0  0
    1.3007   -0.0173    2.3061 C   0  0  0  0  0  0  0  0  0  0  0  0
    2.1883   -0.1614    3.4034 C   0  0  0  0  0  0  0  0  0  0  0  0
    1.8618    0.2886    4.6846 C   0  0  0  0  0  0  0  0  0  0  0  0
    0.6355    0.8958    4.9078 C   0  0  0  0  0  0  0  0  0  0  0  0
   -0.2559    1.0536    3.8489 C   0  0  0  0  0  0  0  0  0  0  0  0
    0.0651    0.6080    2.5539 C   0  0  0  0  0  0  0  0  0  0  0  0
   -0.8454    0.7835    1.5026 C   0  0  0  0  0  0  0  0  0  0  0  0
   -0.5940    0.3671    0.1744 C   0  0  0  0  0  0  0  0  0  0  0  0
   -1.5461    0.5531   -0.8886 C   0  0  0  0  0  0  0  0  0  0  0  0
   -2.8290    1.2604   -0.6219 C   0  0  0  0  0  0  0  0  0  0  0  0
   -4.0870    0.6232   -0.2554 C   0  0  0  0  0  0  0  0  0  0  0  0
   -4.3356   -0.8097   -0.0626 C   0  0  0  0  0  0  0  0  0  0  0  0
   -3.3536   -1.8305   -0.1915 C   0  0  0  0  0  0  0  0  0  0  0  0
   -3.6002   -3.1926   -0.0148 C   0  0  0  0  0  0  0  0  0  0  0  0
   -4.8683   -3.6171    0.3104 C   0  0  0  0  0  0  0  0  0  0  0  0
   -5.8861   -2.6828    0.4628 C   0  0  0  0  0  0  0  0  0  0  0  0
   -5.6379   -1.2781    0.2817 C   0  0  0  0  0  0  0  0  0  0  0  0
   -6.7126   -0.3726    0.4521 C   0  0  0  0  0  0  0  0  0  0  0  0
   -7.9814   -0.9182    0.7939 C   0  0  0  0  0  0  0  0  0  0  0  0
   -8.2021   -2.2812    0.9634 C   0  0  0  0  0  0  0  0  0  0  0  0
   -7.1529   -3.1609    0.7974 C   0  0  0  0  0  0  0  0  0  0  0  0
   -6.4912    1.0264    0.2790 C   0  0  0  0  0  0  0  0  0  0  0  0
   -7.5351    1.9771    0.4424 C   0  0  0  0  0  0  0  0  0  0  0  0
   -7.3498    3.3441    0.2789 C   0  0  0  0  0  0  0  0  0  0  0  0
   -6.0999    3.8161   -0.0585 C   0  0  0  0  0  0  0  0  0  0  0  0
   -5.0376    2.9289   -0.2333 C   0  0  0  0  0  0  0  0  0  0  0  0
   -5.1970    1.5106   -0.0696 C   0  0  0  0  0  0  0  0  0  0  0  0
   -3.8159    3.4817   -0.5770 C   0  0  0  0  0  0  0  0  0  0  0  0
   -2.7286    2.6601   -0.7711 C   0  0  0  0  0  0  0  0  0  0  0  0
   -1.2511    0.1216   -2.2224 C   0  0  0  0  0  0  0  0  0  0  0  0
   -2.1332    0.2733   -3.3229 C   0  0  0  0  0  0  0  0  0  0  0  0
   -1.8015   -0.1703   -4.6048 C   0  0  0  0  0  0  0  0  0  0  0  0
   -0.5757   -0.7788   -4.8264 C   0  0  0  0  0  0  0  0  0  0  0  0
    0.3110   -0.9430   -3.7648 C   0  0  0  0  0  0  0  0  0  0  0  0
   -0.0149   -0.5023   -2.4695 C   0  0  0  0  0  0  0  0  0  0  0  0
    0.8918   -0.6834   -1.4166 C   0  0  0  0  0  0  0  0  0  0  0  0
    0.6409   -0.2648   -0.0891 C   0  0  0  0  0  0  0  0  0  0  0  0
    2.7408   -2.5843    0.9491 C   0  0  0  0  0  0  0  0  0  0  0  0
    3.7959   -3.4401    0.7277 C   0  0  0  0  0  0  0  0  0  0  0  0
    4.3657    0.8051   -0.0400 C   0  0  0  0  0  0  0  0  0  0  0  0
    3.4417    1.8627    0.1831 C   0  0  0  0  0  0  0  0  0  0  0  0
    3.6978    3.2064   -0.0922 C   0  0  0  0  0  0  0  0  0  0  0  0
    4.9192    3.5734   -0.6103 C   0  0  0  0  0  0  0  0  0  0  0  0
    9.0679    2.4278   -2.0057 H   0  0  0  0  0  0  0  0  0  0  0  0
    7.3001    4.0729   -1.5738 H   0  0  0  0  0  0  0  0  0  0  0  0
    8.7135    0.0941   -1.5428 H   0  0  0  0  0  0  0  0  0  0  0  0
    8.4177   -1.8278   -1.0905 H   0  0  0  0  0  0  0  0  0  0  0  0
    8.0397   -4.1542   -0.6184 H   0  0  0  0  0  0  0  0  0  0  0  0
    5.8754   -4.9194    0.2367 H   0  0  0  0  0  0  0  0  0  0  0  0
    3.1636   -0.6257    3.2669 H   0  0  0  0  0  0  0  0  0  0  0  0
    2.5685    0.1632    5.5005 H   0  0  0  0  0  0  0  0  0  0  0  0
    0.3711    1.2477    5.9011 H   0  0  0  0  0  0  0  0  0  0  0  0
   -1.2148    1.5314    4.0422 H   0  0  0  0  0  0  0  0  0  0  0  0
   -1.7956    1.2629    1.7372 H   0  0  0  0  0  0  0  0  0  0  0  0
   -2.3279   -1.6082   -0.4405 H   0  0  0  0  0  0  0  0  0  0  0  0
   -2.7924   -3.9096   -0.1351 H   0  0  0  0  0  0  0  0  0  0  0  0
   -5.0504   -4.6804    0.4449 H   0  0  0  0  0  0  0  0  0  0  0  0
   -8.8501   -0.2840    0.9396 H   0  0  0  0  0  0  0  0  0  0  0  0
   -9.1908   -2.6480    1.2237 H   0  0  0  0  0  0  0  0  0  0  0  0
   -7.3343   -4.2248    0.9323 H   0  0  0  0  0  0  0  0  0  0  0  0
   -8.5432    1.6731    0.7063 H   0  0  0  0  0  0  0  0  0  0  0  0
   -8.1805    4.0308    0.4139 H   0  0  0  0  0  0  0  0  0  0  0  0
   -5.9653    4.8883   -0.1860 H   0  0  0  0  0  0  0  0  0  0  0  0
   -3.6912    4.5545   -0.7041 H   0  0  0  0  0  0  0  0  0  0  0  0
   -1.7762    3.1112   -1.0494 H   0  0  0  0  0  0  0  0  0  0  0  0
   -3.1077    0.7399   -3.1893 H   0  0  0  0  0  0  0  0  0  0  0  0
   -2.5048   -0.0397   -5.4228 H   0  0  0  0  0  0  0  0  0  0  0  0
   -0.3086   -1.1270   -5.8203 H   0  0  0  0  0  0  0  0  0  0  0  0
    1.2696   -1.4221   -3.9559 H   0  0  0  0  0  0  0  0  0  0  0  0
    1.8396   -1.1677   -1.6507 H   0  0  0  0  0  0  0  0  0  0  0  0
    1.7993   -2.9980    1.3111 H   0  0  0  0  0  0  0  0  0  0  0  0
    3.6602   -4.5008    0.9251 H   0  0  0  0  0  0  0  0  0  0  0  0
    2.4623    1.6865    0.6003 H   0  0  0  0  0  0  0  0  0  0  0  0
    2.9356    3.9553    0.1056 H   0  0  0  0  0  0  0  0  0  0  0  0
    5.1084    4.6228   -0.8219 H   0  0  0  0  0  0  0  0  0  0  0  0
  1  2  4  0
  2  3  4  0
  3  4  4  0
  4  5  4  0
  5  6  4  0
  5  7  4  0
  7  8  4  0
  8  9  4  0
  9 10  4  0
 10 11  4  0
 11 12  4  0
 12 13  4  0
 13 14  4  0
 14 15  1  0
 15 16  4  0
 16 17  4  0
 17 18  4  0
 18 19  4  0
 19 20  4  0
 20 21  4  0
 21 22  4  0
 22 23  4  0
 23 24  4  0
 24 25  1  0
 25 26  4  0
 26 27  4  0
 27 28  4  0
 28 29  4  0
 29 30  4  0
 30 31  4  0
 31 32  4  0
 32 33  4  0
 33 34  4  0
 34 35  4  0
 35 36  4  0
 33 37  4  0
 37 38  4  0
 38 39  4  0
 39 40  4  0
 40 41  4  0
 41 42  4  0
 41 43  4  0
 43 44  4  0
 24 45  4  0
 45 46  4  0
 46 47  4  0
 47 48  4  0
 48 49  4  0
 49 50  4  0
 50 51  4  0
 51 52  4  0
 14 53  4  0
 53 54  4  0
 13 55  4  0
 55 56  4  0
 56 57  4  0
 57 58  4  0
  6  1  4  0
 12  7  4  0
 52 15  4  0
 58  3  4  0
 55  4  4  0
 54 11  4  0
 21 16  4  0
 52 23  4  0
 44 25  4  0
 50 45  4  0
 42 26  4  0
 32 27  4  0
 42 37  4  0
 36 31  4  0
  1 59  1  0
  2 60  1  0
  6 61  1  0
  8 62  1  0
  9 63  1  0
 10 64  1  0
 17 65  1  0
 18 66  1  0
 19 67  1  0
 20 68  1  0
 22 69  1  0
 28 70  1  0
 29 71  1  0
 30 72  1  0
 34 73  1  0
 35 74  1  0
 36 75  1  0
 38 76  1  0
 39 77  1  0
 40 78  1  0
 43 79  1  0
 44 80  1  0
 46 81  1  0
 47 82  1  0
 48 83  1  0
 49 84  1  0
 51 85  1  0
 53 86  1  0
 54 87  1  0
 56 88  1  0
 57 89  1  0
 58 90  1  0
M  END
