
     RDKit          3D

 96109  0  0  0  0  0  0  0  0999 V2000
   -5.6943    6.8334   -3.1878 C   0  0  0  0  0  0  0  0  0  0  0  0
   -4.4337    6.9961   -2.6254 C   0  0  0  0  0  0  0  0  0  0  0  0
   -3.8011    5.9113   -2.0105 C   0  0  0  0  0  0  0  0  0  0  0  0
   -4.3977    4.6592   -1.9414 C   0  0  0  0  0  0  0  0  0  0  0  0
   -3.7461    3.6496   -1.3381 N   0  0  0  0  0  0  0  0  0  0  0  0
   -4.3258    2.4381   -1.2705 C   0  0  0  0  0  0  0  0  0  0  0  0
   -3.6546    1.3958   -0.6456 C   0  0  0  0  0  0  0  0  0  0  0  0
   -4.1943    0.1000   -0.5516 C   0  0  0  0  0  0  0  0  0  0  0  0
   -3.4937   -0.9481    0.0715 C   0  0  0  0  0  0  0  0  0  0  0  0
   -4.0092   -2.2635    0.1491 C   0  0  0  0  0  0  0  0  0  0  0  0
   -5.2884   -2.5006   -0.4099 C   0  0  0  0  0  0  0  0  0  0  0  0
   -5.9955   -1.4496   -1.0177 C   0  0  0  0  0  0  0  0  0  0  0  0
   -5.4606   -0.1551   -1.1012 C   0  0  0  0  0  0  0  0  0  0  0  0
   -6.1551    0.8915   -1.7255 C   0  0  0  0  0  0  0  0  0  0  0  0
   -5.5952    2.1785   -1.8138 C   0  0  0  0  0  0  0  0  0  0  0  0
   -6.2670    3.2352   -2.4392 C   0  0  0  0  0  0  0  0  0  0  0  0
   -5.6740    4.5003   -2.5126 C   0  0  0  0  0  0  0  0  0  0  0  0
   -6.3159    5.5877   -3.1328 C   0  0  0  0  0  0  0  0  0  0  0  0
   -5.8466   -3.7872   -0.3625 C   0  0  0  0  0  0  0  0  0  0  0  0
   -5.1570   -4.8464    0.2193 C   0  0  0  0  0  0  0  0  0  0  0  0
   -3.8969   -4.6306    0.7651 C   0  0  0  0  0  0  0  0  0  0  0  0
   -3.3062   -3.3515    0.7460 C   0  0  0  0  0  0  0  0  0  0  0  0
   -1.9545   -3.2006    1.3541 C   0  0  0  0  0  0  0  0  0  0  0  0
   -1.8421   -3.0046    2.7670 C   0  0  0  0  0  0  0  0  0  0  0  0
   -2.9491   -2.9001    3.6486 C   0  0  0  0  0  0  0  0  0  0  0  0
   -2.7881   -2.7219    5.0249 C   0  0  0  0  0  0  0  0  0  0  0  0
   -1.5132   -2.6353    5.5626 C   0  0  0  0  0  0  0  0  0  0  0  0
   -0.4066   -2.7246    4.7214 C   0  0  0  0  0  0  0  0  0  0  0  0
   -0.5581   -2.9082    3.3347 C   0  0  0  0  0  0  0  0  0  0  0  0
    0.5720   -3.0024    2.5117 C   0  0  0  0  0  0  0  0  0  0  0  0
    0.5038   -3.1991    1.1134 C   0  0  0  0  0  0  0  0  0  0  0  0
    1.6783   -3.3134    0.2930 C   0  0  0  0  0  0  0  0  0  0  0  0
    3.0296   -3.2735    0.9173 C   0  0  0  0  0  0  0  0  0  0  0  0
    3.5489   -4.4750    1.4388 C   0  0  0  0  0  0  0  0  0  0  0  0
    4.8048   -4.5140    2.0326 C   0  0  0  0  0  0  0  0  0  0  0  0
    5.5665   -3.3523    2.1101 C   0  0  0  0  0  0  0  0  0  0  0  0
    5.0874   -2.1378    1.5958 C   0  0  0  0  0  0  0  0  0  0  0  0
    5.8802   -0.9807    1.6743 C   0  0  0  0  0  0  0  0  0  0  0  0
    5.4411    0.2487    1.1599 C   0  0  0  0  0  0  0  0  0  0  0  0
    6.2366    1.4021    1.2269 C   0  0  0  0  0  0  0  0  0  0  0  0
    5.7840    2.6240    0.6980 C   0  0  0  0  0  0  0  0  0  0  0  0
    6.5622    3.7862    0.7513 C   0  0  0  0  0  0  0  0  0  0  0  0
    6.0772    4.9827    0.2124 C   0  0  0  0  0  0  0  0  0  0  0  0
    6.8281    6.1720    0.2471 C   0  0  0  0  0  0  0  0  0  0  0  0
    6.3132    7.3457   -0.2991 C   0  0  0  0  0  0  0  0  0  0  0  0
    5.0506    7.3350   -0.8800 C   0  0  0  0  0  0  0  0  0  0  0  0
    4.3093    6.1496   -0.9115 C   0  0  0  0  0  0  0  0  0  0  0  0
    4.7981    4.9657   -0.3745 C   0  0  0  0  0  0  0  0  0  0  0  0
    4.0441    3.8535   -0.4296 N   0  0  0  0  0  0  0  0  0  0  0  0
    4.5195    2.7088    0.0921 C   0  0  0  0  0  0  0  0  0  0  0  0
    3.7404    1.5601    0.0371 C   0  0  0  0  0  0  0  0  0  0  0  0
    4.1750    0.3275    0.5588 C   0  0  0  0  0  0  0  0  0  0  0  0
    3.3767   -0.8288    0.4894 C   0  0  0  0  0  0  0  0  0  0  0  0
    3.8077   -2.0800    0.9931 C   0  0  0  0  0  0  0  0  0  0  0  0
    1.5671   -3.4946   -1.1215 C   0  0  0  0  0  0  0  0  0  0  0  0
    2.6754   -3.6155   -1.9994 C   0  0  0  0  0  0  0  0  0  0  0  0
    2.5158   -3.7778   -3.3772 C   0  0  0  0  0  0  0  0  0  0  0  0
    1.2413   -3.8256   -3.9205 C   0  0  0  0  0  0  0  0  0  0  0  0
    0.1332   -3.7162   -3.0833 C   0  0  0  0  0  0  0  0  0  0  0  0
    0.2834   -3.5575   -1.6939 C   0  0  0  0  0  0  0  0  0  0  0  0
   -0.8475   -3.4647   -0.8716 C   0  0  0  0  0  0  0  0  0  0  0  0
   -0.7801   -3.2882    0.5294 C   0  0  0  0  0  0  0  0  0  0  0  0
   -6.1917    7.6725   -3.6673 H   0  0  0  0  0  0  0  0  0  0  0  0
   -3.9377    7.9626   -2.6616 H   0  0  0  0  0  0  0  0  0  0  0  0
   -2.8148    6.0450   -1.5722 H   0  0  0  0  0  0  0  0  0  0  0  0
   -2.6728    1.6042   -0.2250 H   0  0  0  0  0  0  0  0  0  0  0  0
   -2.5146   -0.7327    0.4978 H   0  0  0  0  0  0  0  0  0  0  0  0
   -6.9782   -1.6452   -1.4442 H   0  0  0  0  0  0  0  0  0  0  0  0
   -7.1380    0.7043   -2.1534 H   0  0  0  0  0  0  0  0  0  0  0  0
   -7.2518    3.0733   -2.8704 H   0  0  0  0  0  0  0  0  0  0  0  0
   -7.3021    5.4681   -3.5751 H   0  0  0  0  0  0  0  0  0  0  0  0
   -6.8306   -3.9770   -0.7872 H   0  0  0  0  0  0  0  0  0  0  0  0
   -5.6000   -5.8386    0.2455 H   0  0  0  0  0  0  0  0  0  0  0  0
   -3.3632   -5.4661    1.2159 H   0  0  0  0  0  0  0  0  0  0  0  0
   -3.9664   -2.9558    3.2654 H   0  0  0  0  0  0  0  0  0  0  0  0
   -3.6602   -2.6500    5.6694 H   0  0  0  0  0  0  0  0  0  0  0  0
   -1.3770   -2.4963    6.6316 H   0  0  0  0  0  0  0  0  0  0  0  0
    0.5865   -2.6515    5.1605 H   0  0  0  0  0  0  0  0  0  0  0  0
    1.5479   -2.9151    2.9888 H   0  0  0  0  0  0  0  0  0  0  0  0
    2.9615   -5.3901    1.3783 H   0  0  0  0  0  0  0  0  0  0  0  0
    5.1905   -5.4485    2.4313 H   0  0  0  0  0  0  0  0  0  0  0  0
    6.5489   -3.4044    2.5755 H   0  0  0  0  0  0  0  0  0  0  0  0
    6.8627   -1.0396    2.1399 H   0  0  0  0  0  0  0  0  0  0  0  0
    7.2193    1.3506    1.6915 H   0  0  0  0  0  0  0  0  0  0  0  0
    7.5463    3.7601    1.2126 H   0  0  0  0  0  0  0  0  0  0  0  0
    7.8166    6.1878    0.7003 H   0  0  0  0  0  0  0  0  0  0  0  0
    6.8947    8.2636   -0.2710 H   0  0  0  0  0  0  0  0  0  0  0  0
    4.6369    8.2437   -1.3095 H   0  0  0  0  0  0  0  0  0  0  0  0
    3.3219    6.1480   -1.3675 H   0  0  0  0  0  0  0  0  0  0  0  0
    2.7620    1.6334   -0.4343 H   0  0  0  0  0  0  0  0  0  0  0  0
    2.3949   -0.7503    0.0220 H   0  0  0  0  0  0  0  0  0  0  0  0
    3.6923   -3.5786   -1.6133 H   0  0  0  0  0  0  0  0  0  0  0  0
    3.3891   -3.8614   -4.0185 H   0  0  0  0  0  0  0  0  0  0  0  0
    1.1072   -3.9472   -4.9918 H   0  0  0  0  0  0  0  0  0  0  0  0
   -0.8602   -3.7532   -3.5267 H   0  0  0  0  0  0  0  0  0  0  0  0
   -1.8228   -3.5287   -1.3532 H   0  0  0  0  0  0  0  0  0  0  0  0
  1  2  4  0
  2  3  4  0
  3  4  4  0
  4  5  4  0
  5  6  4  0
  6  7  4  0
  7  8  4  0
  8  9  4  0
  9 10  4  0
 10 11  4  0
 11 12  4  0
 12 13  4  0
 13 14  4  0
 14 15  4  0
 15 16  4  0
 16 17  4  0
 17 18  4  0
 11 19  4  0
 19 20  4  0
 20 21  4  0
 21 22  4  0
 22 23  1  0
 23 24  4  0
 24 25  4  0
 25 26  4  0
 26 27  4  0
 27 28  4  0
 28 29  4  0
 29 30  4  0
 30 31  4  0
 31 32  4  0
 32 33  1  0
 33 34  4  0
 34 35  4  0
 35 36  4  0
 36 37  4  0
 37 38  4  0
 38 39  4  0
 39 40  4  0
 40 41  4  0
 41 42  4  0
 42 43  4  0
 43 44  4  0
 44 45  4  0
 45 46  4  0
 46 47  4  0
 47 48  4  0
 48 49  4  0
 49 50  4  0
 50 51  4  0
 51 52  4  0
 52 53  4  0
 53 54  4  0
 32 55  4  0
 55 56  4  0
 56 57  4  0
 57 58  4  0
 58 59  4  0
 59 60  4  0
 60 61  4  0
 61 62  4  0
 18  1  4  0
 62 23  4  0
 17  4  4  0
 29 24  4  0
 62 31  4  0
 15  6  4  0
 54 33  4  0
 60 55  4  0
 13  8  4  0
 54 37  4  0
 22 10  4  0
 52 39  4  0
 50 41  4  0
 48 43  4  0
  1 63  1  0
  2 64  1  0
  3 65  1  0
  7 66  1  0
  9 67  1  0
 12 68  1  0
 14 69  1  0
 16 70  1  0
 18 71  1  0
 19 72  1  0
 20 73  1  0
 21 74  1  0
 25 75  1  0
 26 76  1  0
 27 77  1  0
 28 78  1  0
 30 79  1  0
 34 80  1  0
 35 81  1  0
 36 82  1  0
 38 83  1  0
 40 84  1  0
 42 85  1  0
 44 86  1  0
 45 87  1  0
 46 88  1  0
 47 89  1  0
 51 90  1  0
 53 91  1  0
 56 92  1  0
 57 93  1  0
 58 94  1  0
 59 95  1  0
 61 96  1  0
M  END
