
     RDKit          3D

 96109  0  0  0  0  0  0  0  0999 V2000
  -13.6963    1.5839   -3.5983 C   0  0  0  0  0  0  0  0  0  0  0  0
  -14.2692    0.6970   -2.6943 C   0  0  0  0  0  0  0  0  0  0  0  0
  -13.4693    0.0662   -1.7366 C   0  0  0  0  0  0  0  0  0  0  0  0
  -12.1026    0.2988   -1.6565 C   0  0  0  0  0  0  0  0  0  0  0  0
  -11.3793   -0.3342   -0.7162 N   0  0  0  0  0  0  0  0  0  0  0  0
  -10.0560   -0.1074   -0.6407 C   0  0  0  0  0  0  0  0  0  0  0  0
   -9.3097   -0.7611    0.3301 C   0  0  0  0  0  0  0  0  0  0  0  0
   -7.9229   -0.5721    0.4679 C   0  0  0  0  0  0  0  0  0  0  0  0
   -7.1844   -1.2429    1.4574 C   0  0  0  0  0  0  0  0  0  0  0  0
   -5.7992   -1.0528    1.5916 C   0  0  0  0  0  0  0  0  0  0  0  0
   -5.0610   -1.7237    2.5785 C   0  0  0  0  0  0  0  0  0  0  0  0
   -3.6834   -1.5258    2.6976 C   0  0  0  0  0  0  0  0  0  0  0  0
   -3.0113   -0.6520    1.8336 C   0  0  0  0  0  0  0  0  0  0  0  0
   -1.5502   -0.4444    1.9551 C   0  0  0  0  0  0  0  0  0  0  0  0
   -1.0589    0.5862    2.8156 C   0  0  0  0  0  0  0  0  0  0  0  0
   -1.8874    1.4500    3.5776 C   0  0  0  0  0  0  0  0  0  0  0  0
   -1.3598    2.4456    4.4029 C   0  0  0  0  0  0  0  0  0  0  0  0
    0.0141    2.6084    4.4919 C   0  0  0  0  0  0  0  0  0  0  0  0
    0.8538    1.7748    3.7569 C   0  0  0  0  0  0  0  0  0  0  0  0
    0.3324    0.7692    2.9231 C   0  0  0  0  0  0  0  0  0  0  0  0
    1.1982   -0.0556    2.1928 C   0  0  0  0  0  0  0  0  0  0  0  0
    0.7510   -1.0810    1.3277 C   0  0  0  0  0  0  0  0  0  0  0  0
    1.6571   -1.9109    0.5832 C   0  0  0  0  0  0  0  0  0  0  0  0
    3.1179   -1.7108    0.7157 C   0  0  0  0  0  0  0  0  0  0  0  0
    3.7890   -0.7797   -0.0936 C   0  0  0  0  0  0  0  0  0  0  0  0
    5.1713   -0.5645    0.0337 C   0  0  0  0  0  0  0  0  0  0  0  0
    5.8412    0.3754   -0.7659 C   0  0  0  0  0  0  0  0  0  0  0  0
    7.2227    0.5938   -0.6340 C   0  0  0  0  0  0  0  0  0  0  0  0
    7.8972    1.5338   -1.4260 C   0  0  0  0  0  0  0  0  0  0  0  0
    9.2802    1.7417   -1.2795 C   0  0  0  0  0  0  0  0  0  0  0  0
    9.9733    2.6748   -2.0586 C   0  0  0  0  0  0  0  0  0  0  0  0
   11.3495    2.8535   -1.8825 C   0  0  0  0  0  0  0  0  0  0  0  0
   12.0819    3.7811   -2.6454 C   0  0  0  0  0  0  0  0  0  0  0  0
   13.4518    3.9327   -2.4430 C   0  0  0  0  0  0  0  0  0  0  0  0
   14.0923    3.1607   -1.4809 C   0  0  0  0  0  0  0  0  0  0  0  0
   13.3587    2.2403   -0.7259 C   0  0  0  0  0  0  0  0  0  0  0  0
   11.9926    2.0688   -0.9069 C   0  0  0  0  0  0  0  0  0  0  0  0
   11.3342    1.1697   -0.1543 N   0  0  0  0  0  0  0  0  0  0  0  0
   10.0120    1.0059   -0.3320 C   0  0  0  0  0  0  0  0  0  0  0  0
    9.3340    0.0775    0.4454 C   0  0  0  0  0  0  0  0  0  0  0  0
    7.9517   -0.1454    0.3161 C   0  0  0  0  0  0  0  0  0  0  0  0
    7.2823   -1.0873    1.1150 C   0  0  0  0  0  0  0  0  0  0  0  0
    5.9010   -1.3044    0.9874 C   0  0  0  0  0  0  0  0  0  0  0  0
    5.2316   -2.2396    1.7908 C   0  0  0  0  0  0  0  0  0  0  0  0
    3.8558   -2.4388    1.6578 C   0  0  0  0  0  0  0  0  0  0  0  0
    1.1659   -2.9321   -0.2883 C   0  0  0  0  0  0  0  0  0  0  0  0
    1.9939   -3.7854   -1.0629 C   0  0  0  0  0  0  0  0  0  0  0  0
    1.4650   -4.7690   -1.9016 C   0  0  0  0  0  0  0  0  0  0  0  0
    0.0907   -4.9295   -1.9922 C   0  0  0  0  0  0  0  0  0  0  0  0
   -0.7481   -4.1065   -1.2444 C   0  0  0  0  0  0  0  0  0  0  0  0
   -0.2255   -3.1133   -0.3970 C   0  0  0  0  0  0  0  0  0  0  0  0
   -1.0907   -2.2971    0.3435 C   0  0  0  0  0  0  0  0  0  0  0  0
   -0.6439   -1.2735    1.2103 C   0  0  0  0  0  0  0  0  0  0  0  0
   -3.7502    0.0218    0.8474 C   0  0  0  0  0  0  0  0  0  0  0  0
   -5.1361   -0.1689    0.7150 C   0  0  0  0  0  0  0  0  0  0  0  0
   -5.8751    0.5016   -0.2731 C   0  0  0  0  0  0  0  0  0  0  0  0
   -7.2603    0.3094   -0.4061 C   0  0  0  0  0  0  0  0  0  0  0  0
   -8.0033    0.9753   -1.3911 C   0  0  0  0  0  0  0  0  0  0  0  0
   -9.3897    0.7719   -1.5112 C   0  0  0  0  0  0  0  0  0  0  0  0
  -10.1506    1.4263   -2.4867 C   0  0  0  0  0  0  0  0  0  0  0  0
  -11.5280    1.1978   -2.5745 C   0  0  0  0  0  0  0  0  0  0  0  0
  -12.3274    1.8356   -3.5405 C   0  0  0  0  0  0  0  0  0  0  0  0
  -14.3125    2.0775   -4.3453 H   0  0  0  0  0  0  0  0  0  0  0  0
  -15.3360    0.4917   -2.7287 H   0  0  0  0  0  0  0  0  0  0  0  0
  -13.9239   -0.6267   -1.0324 H   0  0  0  0  0  0  0  0  0  0  0  0
   -9.8336   -1.4403    0.9998 H   0  0  0  0  0  0  0  0  0  0  0  0
   -7.6973   -1.9248    2.1340 H   0  0  0  0  0  0  0  0  0  0  0  0
   -5.5532   -2.4092    3.2651 H   0  0  0  0  0  0  0  0  0  0  0  0
   -3.1323   -2.0584    3.4705 H   0  0  0  0  0  0  0  0  0  0  0  0
   -2.9710    1.3557    3.5343 H   0  0  0  0  0  0  0  0  0  0  0  0
   -2.0260    3.0893    4.9711 H   0  0  0  0  0  0  0  0  0  0  0  0
    0.4343    3.3811    5.1294 H   0  0  0  0  0  0  0  0  0  0  0  0
    1.9299    1.9177    3.8379 H   0  0  0  0  0  0  0  0  0  0  0  0
    2.2685    0.1161    2.3064 H   0  0  0  0  0  0  0  0  0  0  0  0
    3.2180   -0.2128   -0.8275 H   0  0  0  0  0  0  0  0  0  0  0  0
    5.2771    0.9480   -1.5001 H   0  0  0  0  0  0  0  0  0  0  0  0
    7.3435    2.1113   -2.1638 H   0  0  0  0  0  0  0  0  0  0  0  0
    9.4417    3.2627   -2.8030 H   0  0  0  0  0  0  0  0  0  0  0  0
   11.5874    4.3886   -3.3998 H   0  0  0  0  0  0  0  0  0  0  0  0
   14.0162    4.6500   -3.0333 H   0  0  0  0  0  0  0  0  0  0  0  0
   15.1606    3.2692   -1.3130 H   0  0  0  0  0  0  0  0  0  0  0  0
   13.8665    1.6396    0.0251 H   0  0  0  0  0  0  0  0  0  0  0  0
    9.9095   -0.4878    1.1760 H   0  0  0  0  0  0  0  0  0  0  0  0
    7.8451   -1.6589    1.8511 H   0  0  0  0  0  0  0  0  0  0  0  0
    5.7760   -2.8205    2.5323 H   0  0  0  0  0  0  0  0  0  0  0  0
    3.3574   -3.1662    2.2959 H   0  0  0  0  0  0  0  0  0  0  0  0
    3.0774   -3.6899   -1.0213 H   0  0  0  0  0  0  0  0  0  0  0  0
    2.1295   -5.4048   -2.4806 H   0  0  0  0  0  0  0  0  0  0  0  0
   -0.3305   -5.6910   -2.6425 H   0  0  0  0  0  0  0  0  0  0  0  0
   -1.8246   -4.2456   -1.3289 H   0  0  0  0  0  0  0  0  0  0  0  0
   -2.1606   -2.4716    0.2330 H   0  0  0  0  0  0  0  0  0  0  0  0
   -3.2305    0.7028    0.1748 H   0  0  0  0  0  0  0  0  0  0  0  0
   -5.3630    1.1835   -0.9499 H   0  0  0  0  0  0  0  0  0  0  0  0
   -7.5002    1.6596   -2.0717 H   0  0  0  0  0  0  0  0  0  0  0  0
   -9.6707    2.1141   -3.1788 H   0  0  0  0  0  0  0  0  0  0  0  0
  -11.8866    2.5306   -4.2514 H   0  0  0  0  0  0  0  0  0  0  0  0
  1  2  4  0
  2  3  4  0
  3  4  4  0
  4  5  4  0
  5  6  4  0
  6  7  4  0
  7  8  4  0
  8  9  4  0
  9 10  4  0
 10 11  4  0
 11 12  4  0
 12 13  4  0
 13 14  1  0
 14 15  4  0
 15 16  4  0
 16 17  4  0
 17 18  4  0
 18 19  4  0
 19 20  4  0
 20 21  4  0
 21 22  4  0
 22 23  4  0
 23 24  1  0
 24 25  4  0
 25 26  4  0
 26 27  4  0
 27 28  4  0
 28 29  4  0
 29 30  4  0
 30 31  4  0
 31 32  4  0
 32 33  4  0
 33 34  4  0
 34 35  4  0
 35 36  4  0
 36 37  4  0
 37 38  4  0
 38 39  4  0
 39 40  4  0
 40 41  4  0
 41 42  4  0
 42 43  4  0
 43 44  4  0
 44 45  4  0
 23 46  4  0
 46 47  4  0
 47 48  4  0
 48 49  4  0
 49 50  4  0
 50 51  4  0
 51 52  4  0
 52 53  4  0
 13 54  4  0
 54 55  4  0
 55 56  4  0
 56 57  4  0
 57 58  4  0
 58 59  4  0
 59 60  4  0
 60 61  4  0
 61 62  4  0
 62  1  4  0
 61  4  4  0
 59  6  4  0
 57  8  4  0
 55 10  4  0
 53 14  4  0
 20 15  4  0
 53 22  4  0
 45 24  4  0
 51 46  4  0
 43 26  4  0
 41 28  4  0
 39 30  4  0
 37 32  4  0
  1 63  1  0
  2 64  1  0
  3 65  1  0
  7 66  1  0
  9 67  1  0
 11 68  1  0
 12 69  1  0
 16 70  1  0
 17 71  1  0
 18 72  1  0
 19 73  1  0
 21 74  1  0
 25 75  1  0
 27 76  1  0
 29 77  1  0
 31 78  1  0
 33 79  1  0
 34 80  1  0
 35 81  1  0
 36 82  1  0
 40 83  1  0
 42 84  1  0
 44 85  1  0
 45 86  1  0
 47 87  1  0
 48 88  1  0
 49 89  1  0
 50 90  1  0
 52 91  1  0
 54 92  1  0
 56 93  1  0
 58 94  1  0
 60 95  1  0
 62 96  1  0
M  END
