
     RDKit          3D

 96109  0  0  0  0  0  0  0  0999 V2000
    5.3288   -5.5058    0.7666 C   0  0  0  0  0  0  0  0  0  0  0  0
    4.0003   -5.6775    0.4115 C   0  0  0  0  0  0  0  0  0  0  0  0
    3.2270   -4.5616    0.0974 C   0  0  0  0  0  0  0  0  0  0  0  0
    3.7713   -3.2519    0.1323 C   0  0  0  0  0  0  0  0  0  0  0  0
    5.1203   -3.0932    0.4966 C   0  0  0  0  0  0  0  0  0  0  0  0
    5.8709   -4.2199    0.8052 C   0  0  0  0  0  0  0  0  0  0  0  0
    5.7235   -1.8982    0.5647 N   0  0  0  0  0  0  0  0  0  0  0  0
    5.0350   -0.7859    0.2752 C   0  0  0  0  0  0  0  0  0  0  0  0
    5.6960    0.4320    0.3682 C   0  0  0  0  0  0  0  0  0  0  0  0
    5.0675    1.6581    0.0931 C   0  0  0  0  0  0  0  0  0  0  0  0
    5.7508    2.8814    0.2005 C   0  0  0  0  0  0  0  0  0  0  0  0
    5.1126    4.1027   -0.0738 C   0  0  0  0  0  0  0  0  0  0  0  0
    5.7926    5.3268    0.0359 C   0  0  0  0  0  0  0  0  0  0  0  0
    5.1431    6.5309   -0.2395 C   0  0  0  0  0  0  0  0  0  0  0  0
    3.8070    6.5267   -0.6286 C   0  0  0  0  0  0  0  0  0  0  0  0
    3.1174    5.3189   -0.7428 C   0  0  0  0  0  0  0  0  0  0  0  0
    3.7574    4.0994   -0.4683 C   0  0  0  0  0  0  0  0  0  0  0  0
    3.0780    2.8759   -0.5770 C   0  0  0  0  0  0  0  0  0  0  0  0
    3.7203    1.6575   -0.2981 C   0  0  0  0  0  0  0  0  0  0  0  0
    3.0482    0.4315   -0.3974 C   0  0  0  0  0  0  0  0  0  0  0  0
    3.6852   -0.8033   -0.1090 C   0  0  0  0  0  0  0  0  0  0  0  0
    3.0397   -2.0721   -0.1772 C   0  0  0  0  0  0  0  0  0  0  0  0
    1.5982   -2.1505   -0.5598 C   0  0  0  0  0  0  0  0  0  0  0  0
    1.2476   -2.3200   -1.9355 C   0  0  0  0  0  0  0  0  0  0  0  0
    2.1903   -2.4765   -2.9839 C   0  0  0  0  0  0  0  0  0  0  0  0
    1.7972   -2.6405   -4.3135 C   0  0  0  0  0  0  0  0  0  0  0  0
    0.4491   -2.6504   -4.6361 C   0  0  0  0  0  0  0  0  0  0  0  0
   -0.4998   -2.4928   -3.6285 C   0  0  0  0  0  0  0  0  0  0  0  0
   -0.1147   -2.3270   -2.2861 C   0  0  0  0  0  0  0  0  0  0  0  0
   -1.0868   -2.1555   -1.2910 C   0  0  0  0  0  0  0  0  0  0  0  0
   -0.7778   -1.9829    0.0782 C   0  0  0  0  0  0  0  0  0  0  0  0
   -1.7876   -1.7724    1.0786 C   0  0  0  0  0  0  0  0  0  0  0  0
   -3.2198   -1.6459    0.6733 C   0  0  0  0  0  0  0  0  0  0  0  0
   -3.7367   -0.3719    0.2957 C   0  0  0  0  0  0  0  0  0  0  0  0
   -2.9764    0.8268    0.2847 C   0  0  0  0  0  0  0  0  0  0  0  0
   -3.5289    2.0564   -0.1005 C   0  0  0  0  0  0  0  0  0  0  0  0
   -2.7679    3.2379   -0.1073 C   0  0  0  0  0  0  0  0  0  0  0  0
   -3.3303    4.4651   -0.4939 C   0  0  0  0  0  0  0  0  0  0  0  0
   -2.5741    5.6489   -0.5001 C   0  0  0  0  0  0  0  0  0  0  0  0
   -3.1487    6.8607   -0.8865 C   0  0  0  0  0  0  0  0  0  0  0  0
   -4.4853    6.9043   -1.2711 C   0  0  0  0  0  0  0  0  0  0  0  0
   -5.2496    5.7364   -1.2700 C   0  0  0  0  0  0  0  0  0  0  0  0
   -4.6860    4.5092   -0.8838 C   0  0  0  0  0  0  0  0  0  0  0  0
   -5.4422    3.3252   -0.8755 C   0  0  0  0  0  0  0  0  0  0  0  0
   -4.8771    2.0986   -0.4861 C   0  0  0  0  0  0  0  0  0  0  0  0
   -5.6259    0.9099   -0.4697 C   0  0  0  0  0  0  0  0  0  0  0  0
   -5.0851   -0.3112   -0.0883 C   0  0  0  0  0  0  0  0  0  0  0  0
   -5.8850   -1.3855   -0.1062 N   0  0  0  0  0  0  0  0  0  0  0  0
   -5.4057   -2.5827    0.2570 C   0  0  0  0  0  0  0  0  0  0  0  0
   -6.2755   -3.6652    0.2323 C   0  0  0  0  0  0  0  0  0  0  0  0
   -5.8689   -4.9505    0.5940 C   0  0  0  0  0  0  0  0  0  0  0  0
   -4.5584   -5.1663    0.9903 C   0  0  0  0  0  0  0  0  0  0  0  0
   -3.6670   -4.0948    1.0217 C   0  0  0  0  0  0  0  0  0  0  0  0
   -4.0730   -2.7848    0.6585 C   0  0  0  0  0  0  0  0  0  0  0  0
   -1.4358   -1.6258    2.4573 C   0  0  0  0  0  0  0  0  0  0  0  0
   -2.3734   -1.4176    3.5009 C   0  0  0  0  0  0  0  0  0  0  0  0
   -1.9794   -1.2811    4.8336 C   0  0  0  0  0  0  0  0  0  0  0  0
   -0.6346   -1.3464    5.1638 C   0  0  0  0  0  0  0  0  0  0  0  0
    0.3103   -1.5441    4.1598 C   0  0  0  0  0  0  0  0  0  0  0  0
   -0.0765   -1.6810    2.8146 C   0  0  0  0  0  0  0  0  0  0  0  0
    0.8934   -1.8598    1.8199 C   0  0  0  0  0  0  0  0  0  0  0  0
    0.5843   -2.0042    0.4476 C   0  0  0  0  0  0  0  0  0  0  0  0
    5.9472   -6.3644    1.0137 H   0  0  0  0  0  0  0  0  0  0  0  0
    3.5641   -6.6724    0.3767 H   0  0  0  0  0  0  0  0  0  0  0  0
    2.1870   -4.7225   -0.1801 H   0  0  0  0  0  0  0  0  0  0  0  0
    6.9144   -4.0923    1.0853 H   0  0  0  0  0  0  0  0  0  0  0  0
    6.7415    0.4190    0.6716 H   0  0  0  0  0  0  0  0  0  0  0  0
    6.7962    2.8827    0.5041 H   0  0  0  0  0  0  0  0  0  0  0  0
    6.8371    5.3498    0.3385 H   0  0  0  0  0  0  0  0  0  0  0  0
    5.6813    7.4710   -0.1502 H   0  0  0  0  0  0  0  0  0  0  0  0
    3.2996    7.4633   -0.8441 H   0  0  0  0  0  0  0  0  0  0  0  0
    2.0740    5.3373   -1.0492 H   0  0  0  0  0  0  0  0  0  0  0  0
    2.0334    2.8717   -0.8831 H   0  0  0  0  0  0  0  0  0  0  0  0
    2.0032    0.4405   -0.7038 H   0  0  0  0  0  0  0  0  0  0  0  0
    3.2586   -2.4748   -2.7749 H   0  0  0  0  0  0  0  0  0  0  0  0
    2.5474   -2.7591   -5.0908 H   0  0  0  0  0  0  0  0  0  0  0  0
    0.1341   -2.7771   -5.6682 H   0  0  0  0  0  0  0  0  0  0  0  0
   -1.5535   -2.4967   -3.9019 H   0  0  0  0  0  0  0  0  0  0  0  0
   -2.1301   -2.1555   -1.6067 H   0  0  0  0  0  0  0  0  0  0  0  0
   -1.9299    0.8040    0.5854 H   0  0  0  0  0  0  0  0  0  0  0  0
   -1.7228    3.2014    0.1957 H   0  0  0  0  0  0  0  0  0  0  0  0
   -1.5282    5.6352   -0.2015 H   0  0  0  0  0  0  0  0  0  0  0  0
   -2.5522    7.7692   -0.8863 H   0  0  0  0  0  0  0  0  0  0  0  0
   -4.9349    7.8471   -1.5718 H   0  0  0  0  0  0  0  0  0  0  0  0
   -6.2927    5.7915   -1.5734 H   0  0  0  0  0  0  0  0  0  0  0  0
   -6.4884    3.3589   -1.1750 H   0  0  0  0  0  0  0  0  0  0  0  0
   -6.6741    0.9300   -0.7633 H   0  0  0  0  0  0  0  0  0  0  0  0
   -7.3055   -3.5018   -0.0778 H   0  0  0  0  0  0  0  0  0  0  0  0
   -6.5780   -5.7736    0.5651 H   0  0  0  0  0  0  0  0  0  0  0  0
   -4.2280   -6.1615    1.2760 H   0  0  0  0  0  0  0  0  0  0  0  0
   -2.6441   -4.2902    1.3386 H   0  0  0  0  0  0  0  0  0  0  0  0
   -3.4389   -1.3591    3.2859 H   0  0  0  0  0  0  0  0  0  0  0  0
   -2.7265   -1.1243    5.6072 H   0  0  0  0  0  0  0  0  0  0  0  0
   -0.3187   -1.2411    6.1980 H   0  0  0  0  0  0  0  0  0  0  0  0
    1.3620   -1.5879    4.4376 H   0  0  0  0  0  0  0  0  0  0  0  0
    1.9358   -1.8825    2.1379 H   0  0  0  0  0  0  0  0  0  0  0  0
  1  2  4  0
  2  3  4  0
  3  4  4  0
  4  5  4  0
  5  6  4  0
  5  7  4  0
  7  8  4  0
  8  9  4  0
  9 10  4  0
 10 11  4  0
 11 12  4  0
 12 13  4  0
 13 14  4  0
 14 15  4  0
 15 16  4  0
 16 17  4  0
 17 18  4  0
 18 19  4  0
 19 20  4  0
 20 21  4  0
 21 22  4  0
 22 23  1  0
 23 24  4  0
 24 25  4  0
 25 26  4  0
 26 27  4  0
 27 28  4  0
 28 29  4  0
 29 30  4  0
 30 31  4  0
 31 32  4  0
 32 33  1  0
 33 34  4  0
 34 35  4  0
 35 36  4  0
 36 37  4  0
 37 38  4  0
 38 39  4  0
 39 40  4  0
 40 41  4  0
 41 42  4  0
 42 43  4  0
 43 44  4  0
 44 45  4  0
 45 46  4  0
 46 47  4  0
 47 48  4  0
 48 49  4  0
 49 50  4  0
 50 51  4  0
 51 52  4  0
 52 53  4  0
 53 54  4  0
 32 55  4  0
 55 56  4  0
 56 57  4  0
 57 58  4  0
 58 59  4  0
 59 60  4  0
 60 61  4  0
 61 62  4  0
  6  1  4  0
 21  8  4  0
 62 23  4  0
 22  4  4  0
 29 24  4  0
 62 31  4  0
 19 10  4  0
 54 33  4  0
 60 55  4  0
 17 12  4  0
 47 34  4  0
 54 49  4  0
 45 36  4  0
 43 38  4  0
  1 63  1  0
  2 64  1  0
  3 65  1  0
  6 66  1  0
  9 67  1  0
 11 68  1  0
 13 69  1  0
 14 70  1  0
 15 71  1  0
 16 72  1  0
 18 73  1  0
 20 74  1  0
 25 75  1  0
 26 76  1  0
 27 77  1  0
 28 78  1  0
 30 79  1  0
 35 80  1  0
 37 81  1  0
 39 82  1  0
 40 83  1  0
 41 84  1  0
 42 85  1  0
 44 86  1  0
 46 87  1  0
 50 88  1  0
 51 89  1  0
 52 90  1  0
 53 91  1  0
 56 92  1  0
 57 93  1  0
 58 94  1  0
 59 95  1  0
 61 96  1  0
M  END
