
     RDKit          3D

 96109  0  0  0  0  0  0  0  0999 V2000
    9.3935    0.0518    4.8109 C   0  0  0  0  0  0  0  0  0  0  0  0
    8.2683   -0.3071    5.5440 C   0  0  0  0  0  0  0  0  0  0  0  0
    7.0091   -0.2952    4.9363 C   0  0  0  0  0  0  0  0  0  0  0  0
    6.8424    0.0670    3.6063 C   0  0  0  0  0  0  0  0  0  0  0  0
    5.6102    0.0593    3.0690 N   0  0  0  0  0  0  0  0  0  0  0  0
    5.4507    0.4029    1.7784 C   0  0  0  0  0  0  0  0  0  0  0  0
    4.1823    0.3704    1.2083 C   0  0  0  0  0  0  0  0  0  0  0  0
    3.9075    0.6386   -0.1587 C   0  0  0  0  0  0  0  0  0  0  0  0
    4.9871    1.1828   -0.8879 C   0  0  0  0  0  0  0  0  0  0  0  0
    6.2852    1.1886   -0.3544 C   0  0  0  0  0  0  0  0  0  0  0  0
    6.5231    0.7863    0.9669 C   0  0  0  0  0  0  0  0  0  0  0  0
    7.8047    0.7951    1.5308 C   0  0  0  0  0  0  0  0  0  0  0  0
    7.9847    0.4288    2.8687 C   0  0  0  0  0  0  0  0  0  0  0  0
    9.2544    0.4202    3.4745 C   0  0  0  0  0  0  0  0  0  0  0  0
    4.7535    1.7991   -2.1131 C   0  0  0  0  0  0  0  0  0  0  0  0
    3.4477    2.0986   -2.4862 C   0  0  0  0  0  0  0  0  0  0  0  0
    3.2200    3.0042   -3.5381 C   0  0  0  0  0  0  0  0  0  0  0  0
    1.9373    3.4620   -3.8240 C   0  0  0  0  0  0  0  0  0  0  0  0
    0.8758    3.0390   -3.0414 C   0  0  0  0  0  0  0  0  0  0  0  0
    1.0950    2.1087   -2.0213 C   0  0  0  0  0  0  0  0  0  0  0  0
    2.3702    1.5385   -1.7611 C   0  0  0  0  0  0  0  0  0  0  0  0
    2.6322    0.5014   -0.7994 C   0  0  0  0  0  0  0  0  0  0  0  0
    1.5816   -0.6167   -0.4808 C   0  0  0  0  0  0  0  0  0  0  0  0
    1.6896   -1.5635    0.5827 C   0  0  0  0  0  0  0  0  0  0  0  0
    2.8851   -2.1830    1.0279 C   0  0  0  0  0  0  0  0  0  0  0  0
    2.9341   -3.0115    2.1531 C   0  0  0  0  0  0  0  0  0  0  0  0
    1.7704   -3.2942    2.8475 C   0  0  0  0  0  0  0  0  0  0  0  0
    0.5579   -2.8170    2.3604 C   0  0  0  0  0  0  0  0  0  0  0  0
    0.5083   -2.0200    1.2026 C   0  0  0  0  0  0  0  0  0  0  0  0
   -0.7229   -1.7528    0.6103 C   0  0  0  0  0  0  0  0  0  0  0  0
   -0.7883   -1.2912   -0.7134 C   0  0  0  0  0  0  0  0  0  0  0  0
   -1.9991   -1.3464   -1.4859 C   0  0  0  0  0  0  0  0  0  0  0  0
   -3.2800   -1.7787   -0.8438 C   0  0  0  0  0  0  0  0  0  0  0  0
   -3.6219   -3.1706   -0.8021 C   0  0  0  0  0  0  0  0  0  0  0  0
   -2.8128   -4.2000   -1.3447 C   0  0  0  0  0  0  0  0  0  0  0  0
   -3.1810   -5.5453   -1.2781 C   0  0  0  0  0  0  0  0  0  0  0  0
   -4.3729   -5.9042   -0.6673 C   0  0  0  0  0  0  0  0  0  0  0  0
   -5.1922   -4.9170   -0.1244 C   0  0  0  0  0  0  0  0  0  0  0  0
   -4.8311   -3.5595   -0.1849 C   0  0  0  0  0  0  0  0  0  0  0  0
   -5.6726   -2.5876    0.3682 C   0  0  0  0  0  0  0  0  0  0  0  0
   -5.3557   -1.2242    0.3270 C   0  0  0  0  0  0  0  0  0  0  0  0
   -6.2333   -0.2826    0.8844 C   0  0  0  0  0  0  0  0  0  0  0  0
   -5.9450    1.0904    0.8477 C   0  0  0  0  0  0  0  0  0  0  0  0
   -6.8137    2.0426    1.3932 C   0  0  0  0  0  0  0  0  0  0  0  0
   -6.4937    3.4025    1.3309 C   0  0  0  0  0  0  0  0  0  0  0  0
   -7.3394    4.3909    1.8662 C   0  0  0  0  0  0  0  0  0  0  0  0
   -6.9874    5.7363    1.7857 C   0  0  0  0  0  0  0  0  0  0  0  0
   -5.7943    6.0978    1.1715 C   0  0  0  0  0  0  0  0  0  0  0  0
   -4.9586    5.1102    0.6408 C   0  0  0  0  0  0  0  0  0  0  0  0
   -5.2844    3.7617    0.7082 C   0  0  0  0  0  0  0  0  0  0  0  0
   -4.4454    2.8510    0.1843 N   0  0  0  0  0  0  0  0  0  0  0  0
   -4.7617    1.5450    0.2510 C   0  0  0  0  0  0  0  0  0  0  0  0
   -3.8987    0.5991   -0.2892 C   0  0  0  0  0  0  0  0  0  0  0  0
   -4.1569   -0.7972   -0.2773 C   0  0  0  0  0  0  0  0  0  0  0  0
   -1.9852   -1.0342   -2.8805 C   0  0  0  0  0  0  0  0  0  0  0  0
   -3.1293   -1.0663   -3.7176 C   0  0  0  0  0  0  0  0  0  0  0  0
   -3.0554   -0.7794   -5.0823 C   0  0  0  0  0  0  0  0  0  0  0  0
   -1.8333   -0.4581   -5.6529 C   0  0  0  0  0  0  0  0  0  0  0  0
   -0.6918   -0.4215   -4.8563 C   0  0  0  0  0  0  0  0  0  0  0  0
   -0.7583   -0.7002   -3.4800 C   0  0  0  0  0  0  0  0  0  0  0  0
    0.3989   -0.6279   -2.6929 C   0  0  0  0  0  0  0  0  0  0  0  0
    0.4121   -0.8181   -1.2915 C   0  0  0  0  0  0  0  0  0  0  0  0
   10.3752    0.0455    5.2776 H   0  0  0  0  0  0  0  0  0  0  0  0
    8.3627   -0.5964    6.5875 H   0  0  0  0  0  0  0  0  0  0  0  0
    6.1325   -0.5760    5.5156 H   0  0  0  0  0  0  0  0  0  0  0  0
    3.3575    0.1429    1.8827 H   0  0  0  0  0  0  0  0  0  0  0  0
    7.1145    1.5643   -0.9517 H   0  0  0  0  0  0  0  0  0  0  0  0
    8.6607    1.0923    0.9301 H   0  0  0  0  0  0  0  0  0  0  0  0
   10.1389    0.7004    2.9073 H   0  0  0  0  0  0  0  0  0  0  0  0
    5.5846    2.2177   -2.6775 H   0  0  0  0  0  0  0  0  0  0  0  0
    4.0531    3.4000   -4.1153 H   0  0  0  0  0  0  0  0  0  0  0  0
    1.7767    4.1793   -4.6238 H   0  0  0  0  0  0  0  0  0  0  0  0
   -0.1262    3.4231   -3.2157 H   0  0  0  0  0  0  0  0  0  0  0  0
    0.2390    1.8317   -1.4065 H   0  0  0  0  0  0  0  0  0  0  0  0
    3.8113   -2.0379    0.4753 H   0  0  0  0  0  0  0  0  0  0  0  0
    3.8846   -3.4250    2.4793 H   0  0  0  0  0  0  0  0  0  0  0  0
    1.7976   -3.9256    3.7307 H   0  0  0  0  0  0  0  0  0  0  0  0
   -0.3595   -3.1195    2.8612 H   0  0  0  0  0  0  0  0  0  0  0  0
   -1.6240   -2.0978    1.1135 H   0  0  0  0  0  0  0  0  0  0  0  0
   -1.8686   -3.9614   -1.8320 H   0  0  0  0  0  0  0  0  0  0  0  0
   -2.5312   -6.3049   -1.7044 H   0  0  0  0  0  0  0  0  0  0  0  0
   -4.6668   -6.9489   -0.6124 H   0  0  0  0  0  0  0  0  0  0  0  0
   -6.1237   -5.2193    0.3502 H   0  0  0  0  0  0  0  0  0  0  0  0
   -6.6023   -2.9025    0.8410 H   0  0  0  0  0  0  0  0  0  0  0  0
   -7.1581   -0.6186    1.3506 H   0  0  0  0  0  0  0  0  0  0  0  0
   -7.7404    1.7257    1.8651 H   0  0  0  0  0  0  0  0  0  0  0  0
   -8.2752    4.1166    2.3476 H   0  0  0  0  0  0  0  0  0  0  0  0
   -7.6418    6.4989    2.2004 H   0  0  0  0  0  0  0  0  0  0  0  0
   -5.5095    7.1446    1.1027 H   0  0  0  0  0  0  0  0  0  0  0  0
   -4.0268    5.3993    0.1603 H   0  0  0  0  0  0  0  0  0  0  0  0
   -2.9851    0.9795   -0.7440 H   0  0  0  0  0  0  0  0  0  0  0  0
   -4.1054   -1.3211   -3.3095 H   0  0  0  0  0  0  0  0  0  0  0  0
   -3.9538   -0.8100   -5.6926 H   0  0  0  0  0  0  0  0  0  0  0  0
   -1.7660   -0.2317   -6.7131 H   0  0  0  0  0  0  0  0  0  0  0  0
    0.2586   -0.1572   -5.3165 H   0  0  0  0  0  0  0  0  0  0  0  0
    1.3403   -0.4079   -3.1978 H   0  0  0  0  0  0  0  0  0  0  0  0
  1  2  4  0
  2  3  4  0
  3  4  4  0
  4  5  4  0
  5  6  4  0
  6  7  4  0
  7  8  4  0
  8  9  4  0
  9 10  4  0
 10 11  4  0
 11 12  4  0
 12 13  4  0
 13 14  4  0
  9 15  4  0
 15 16  4  0
 16 17  4  0
 17 18  4  0
 18 19  4  0
 19 20  4  0
 20 21  4  0
 21 22  4  0
 22 23  1  0
 23 24  4  0
 24 25  4  0
 25 26  4  0
 26 27  4  0
 27 28  4  0
 28 29  4  0
 29 30  4  0
 30 31  4  0
 31 32  4  0
 32 33  1  0
 33 34  4  0
 34 35  4  0
 35 36  4  0
 36 37  4  0
 37 38  4  0
 38 39  4  0
 39 40  4  0
 40 41  4  0
 41 42  4  0
 42 43  4  0
 43 44  4  0
 44 45  4  0
 45 46  4  0
 46 47  4  0
 47 48  4  0
 48 49  4  0
 49 50  4  0
 50 51  4  0
 51 52  4  0
 52 53  4  0
 53 54  4  0
 32 55  4  0
 55 56  4  0
 56 57  4  0
 57 58  4  0
 58 59  4  0
 59 60  4  0
 60 61  4  0
 61 62  4  0
 14  1  4  0
 21 16  4  0
 62 23  4  0
 13  4  4  0
 29 24  4  0
 62 31  4  0
 11  6  4  0
 54 33  4  0
 60 55  4  0
 22  8  4  0
 39 34  4  0
 54 41  4  0
 52 43  4  0
 50 45  4  0
  1 63  1  0
  2 64  1  0
  3 65  1  0
  7 66  1  0
 10 67  1  0
 12 68  1  0
 14 69  1  0
 15 70  1  0
 17 71  1  0
 18 72  1  0
 19 73  1  0
 20 74  1  0
 25 75  1  0
 26 76  1  0
 27 77  1  0
 28 78  1  0
 30 79  1  0
 35 80  1  0
 36 81  1  0
 37 82  1  0
 38 83  1  0
 40 84  1  0
 42 85  1  0
 44 86  1  0
 46 87  1  0
 47 88  1  0
 48 89  1  0
 49 90  1  0
 53 91  1  0
 56 92  1  0
 57 93  1  0
 58 94  1  0
 59 95  1  0
 61 96  1  0
M  END
