
     RDKit          3D

 86 99  0  0  0  0  0  0  0  0999 V2000
    8.5658    4.7734    2.1225 C   0  0  0  0  0  0  0  0  0  0  0  0
    7.2634    4.6350    1.7039 C   0  0  0  0  0  0  0  0  0  0  0  0
    6.9412    3.2901    1.3200 C   0  0  0  0  0  0  0  0  0  0  0  0
    5.7314    2.7339    0.8411 C   0  0  0  0  0  0  0  0  0  0  0  0
    5.6347    1.3663    0.5261 C   0  0  0  0  0  0  0  0  0  0  0  0
    4.4283    0.8048    0.0699 C   0  0  0  0  0  0  0  0  0  0  0  0
    4.2549   -0.5774   -0.2038 C   0  0  0  0  0  0  0  0  0  0  0  0
    5.4343   -1.3483   -0.1686 C   0  0  0  0  0  0  0  0  0  0  0  0
    6.6400   -0.8091    0.3160 C   0  0  0  0  0  0  0  0  0  0  0  0
    6.7517    0.5396    0.6769 C   0  0  0  0  0  0  0  0  0  0  0  0
    7.9627    1.0736    1.1496 C   0  0  0  0  0  0  0  0  0  0  0  0
    8.0403    2.4437    1.4676 C   0  0  0  0  0  0  0  0  0  0  0  0
    9.4159    3.2968    2.0601 S   0  0  0  0  0  0  0  0  0  0  0  0
    5.4316   -2.6457   -0.6680 C   0  0  0  0  0  0  0  0  0  0  0  0
    4.3406   -3.0110   -1.4619 C   0  0  0  0  0  0  0  0  0  0  0  0
    4.2630   -4.3965   -2.4873 S   0  0  0  0  0  0  0  0  0  0  0  0
    2.8585   -3.8261   -3.2504 C   0  0  0  0  0  0  0  0  0  0  0  0
    2.4059   -2.6684   -2.6640 C   0  0  0  0  0  0  0  0  0  0  0  0
    3.1658   -2.2512   -1.5039 C   0  0  0  0  0  0  0  0  0  0  0  0
    2.9913   -1.1947   -0.5487 C   0  0  0  0  0  0  0  0  0  0  0  0
    1.6108   -0.6633   -0.0986 C   0  0  0  0  0  0  0  0  0  0  0  0
    1.4803    0.3161    0.9370 C   0  0  0  0  0  0  0  0  0  0  0  0
    2.3373    0.4329    2.0643 C   0  0  0  0  0  0  0  0  0  0  0  0
    2.2256    1.4739    2.9899 C   0  0  0  0  0  0  0  0  0  0  0  0
    1.2286    2.4232    2.8361 C   0  0  0  0  0  0  0  0  0  0  0  0
    0.3132    2.2903    1.7961 C   0  0  0  0  0  0  0  0  0  0  0  0
    0.4010    1.2209    0.8868 C   0  0  0  0  0  0  0  0  0  0  0  0
   -0.6186    1.0165   -0.0394 C   0  0  0  0  0  0  0  0  0  0  0  0
   -0.7345   -0.2087   -0.7156 C   0  0  0  0  0  0  0  0  0  0  0  0
   -1.9344   -0.5854   -1.4079 C   0  0  0  0  0  0  0  0  0  0  0  0
   -3.0240    0.4067   -1.6072 C   0  0  0  0  0  0  0  0  0  0  0  0
   -2.9428    1.2365   -2.7677 C   0  0  0  0  0  0  0  0  0  0  0  0
   -1.9631    1.3009   -3.8251 C   0  0  0  0  0  0  0  0  0  0  0  0
   -2.2492    2.2528   -4.7740 C   0  0  0  0  0  0  0  0  0  0  0  0
   -3.6932    3.0818   -4.4226 S   0  0  0  0  0  0  0  0  0  0  0  0
   -3.9542    2.1724   -2.9810 C   0  0  0  0  0  0  0  0  0  0  0  0
   -5.0337    2.3115   -2.0906 C   0  0  0  0  0  0  0  0  0  0  0  0
   -5.1116    1.4993   -0.9510 C   0  0  0  0  0  0  0  0  0  0  0  0
   -4.1143    0.5420   -0.6921 C   0  0  0  0  0  0  0  0  0  0  0  0
   -4.2470   -0.2423    0.4787 C   0  0  0  0  0  0  0  0  0  0  0  0
   -5.3253   -0.0983    1.3678 C   0  0  0  0  0  0  0  0  0  0  0  0
   -5.4298   -0.8940    2.5234 C   0  0  0  0  0  0  0  0  0  0  0  0
   -6.5182   -0.7482    3.4167 C   0  0  0  0  0  0  0  0  0  0  0  0
   -6.8254   -1.4400    4.6363 C   0  0  0  0  0  0  0  0  0  0  0  0
   -7.9910   -1.0021    5.2201 C   0  0  0  0  0  0  0  0  0  0  0  0
   -8.7293    0.2400    4.3154 S   0  0  0  0  0  0  0  0  0  0  0  0
   -7.4882    0.2091    3.1195 C   0  0  0  0  0  0  0  0  0  0  0  0
   -7.3998    1.0150    1.9676 C   0  0  0  0  0  0  0  0  0  0  0  0
   -6.3122    0.8573    1.0922 C   0  0  0  0  0  0  0  0  0  0  0  0
   -6.1916    1.6440   -0.0633 C   0  0  0  0  0  0  0  0  0  0  0  0
   -2.1121   -1.9252   -1.8686 C   0  0  0  0  0  0  0  0  0  0  0  0
   -3.2645   -2.3885   -2.5528 C   0  0  0  0  0  0  0  0  0  0  0  0
   -3.4142   -3.7257   -2.9263 C   0  0  0  0  0  0  0  0  0  0  0  0
   -2.4171   -4.6406   -2.6237 C   0  0  0  0  0  0  0  0  0  0  0  0
   -1.2697   -4.2124   -1.9602 C   0  0  0  0  0  0  0  0  0  0  0  0
   -1.1047   -2.8654   -1.5915 C   0  0  0  0  0  0  0  0  0  0  0  0
    0.0752   -2.4468   -0.9598 C   0  0  0  0  0  0  0  0  0  0  0  0
    0.3542   -1.1056   -0.6230 C   0  0  0  0  0  0  0  0  0  0  0  0
    9.0598    5.6733    2.4622 H   0  0  0  0  0  0  0  0  0  0  0  0
    6.5628    5.4602    1.6707 H   0  0  0  0  0  0  0  0  0  0  0  0
    4.8639    3.3806    0.7276 H   0  0  0  0  0  0  0  0  0  0  0  0
    3.5875    1.4803   -0.0873 H   0  0  0  0  0  0  0  0  0  0  0  0
    7.5245   -1.4432    0.3726 H   0  0  0  0  0  0  0  0  0  0  0  0
    8.8399    0.4431    1.2680 H   0  0  0  0  0  0  0  0  0  0  0  0
    6.3238   -3.2652   -0.6495 H   0  0  0  0  0  0  0  0  0  0  0  0
    2.4306   -4.3520   -4.0930 H   0  0  0  0  0  0  0  0  0  0  0  0
    1.5423   -2.1395   -3.0482 H   0  0  0  0  0  0  0  0  0  0  0  0
    3.1147   -0.3104    2.2356 H   0  0  0  0  0  0  0  0  0  0  0  0
    2.9208    1.5357    3.8229 H   0  0  0  0  0  0  0  0  0  0  0  0
    1.1345    3.2408    3.5450 H   0  0  0  0  0  0  0  0  0  0  0  0
   -0.5042    3.0059    1.7282 H   0  0  0  0  0  0  0  0  0  0  0  0
   -1.4272    1.7437   -0.0835 H   0  0  0  0  0  0  0  0  0  0  0  0
   -1.0838    0.6695   -3.8769 H   0  0  0  0  0  0  0  0  0  0  0  0
   -1.6761    2.4988   -5.6573 H   0  0  0  0  0  0  0  0  0  0  0  0
   -5.8014    3.0544   -2.2950 H   0  0  0  0  0  0  0  0  0  0  0  0
   -3.4883   -0.9900    0.7089 H   0  0  0  0  0  0  0  0  0  0  0  0
   -4.6667   -1.6376    2.7432 H   0  0  0  0  0  0  0  0  0  0  0  0
   -6.2118   -2.2251    5.0608 H   0  0  0  0  0  0  0  0  0  0  0  0
   -8.4449   -1.3533    6.1365 H   0  0  0  0  0  0  0  0  0  0  0  0
   -8.1735    1.7510    1.7660 H   0  0  0  0  0  0  0  0  0  0  0  0
   -6.9590    2.3878   -0.2759 H   0  0  0  0  0  0  0  0  0  0  0  0
   -4.0760   -1.7048   -2.7955 H   0  0  0  0  0  0  0  0  0  0  0  0
   -4.3138   -4.0469   -3.4446 H   0  0  0  0  0  0  0  0  0  0  0  0
   -2.5282   -5.6842   -2.9046 H   0  0  0  0  0  0  0  0  0  0  0  0
   -0.4924   -4.9419   -1.7398 H   0  0  0  0  0  0  0  0  0  0  0  0
    0.8085   -3.2107   -0.6998 H   0  0  0  0  0  0  0  0  0  0  0  0
  1  2  4  0
  2  3  4  0
  3  4  4  0
  4  5  4  0
  5  6  4  0
  6  7  4  0
  7  8  4  0
  8  9  4  0
  9 10  4  0
 10 11  4  0
 11 12  4  0
 12 13  4  0
  8 14  4  0
 14 15  4  0
 15 16  4  0
 16 17  4  0
 17 18  4  0
 18 19  4  0
 19 20  4  0
 20 21  1  0
 21 22  4  0
 22 23  4  0
 23 24  4  0
 24 25  4  0
 25 26  4  0
 26 27  4  0
 27 28  4  0
 28 29  4  0
 29 30  4  0
 30 31  1  0
 31 32  4  0
 32 33  4  0
 33 34  4  0
 34 35  4  0
 35 36  4  0
 36 37  4  0
 37 38  4  0
 38 39  4  0
 39 40  4  0
 40 41  4  0
 41 42  4  0
 42 43  4  0
 43 44  4  0
 44 45  4  0
 45 46  4  0
 46 47  4  0
 47 48  4  0
 48 49  4  0
 49 50  4  0
 30 51  4  0
 51 52  4  0
 52 53  4  0
 53 54  4  0
 54 55  4  0
 55 56  4  0
 56 57  4  0
 57 58  4  0
 13  1  4  0
 19 15  4  0
 58 21  4  0
 12  3  4  0
 27 22  4  0
 58 29  4  0
 10  5  4  0
 39 31  4  0
 49 41  4  0
 56 51  4  0
 20  7  4  0
 36 32  4  0
 50 38  4  0
 47 43  4  0
  1 59  1  0
  2 60  1  0
  4 61  1  0
  6 62  1  0
  9 63  1  0
 11 64  1  0
 14 65  1  0
 17 66  1  0
 18 67  1  0
 23 68  1  0
 24 69  1  0
 25 70  1  0
 26 71  1  0
 28 72  1  0
 33 73  1  0
 34 74  1  0
 37 75  1  0
 40 76  1  0
 42 77  1  0
 44 78  1  0
 45 79  1  0
 48 80  1  0
 50 81  1  0
 52 82  1  0
 53 83  1  0
 54 84  1  0
 55 85  1  0
 57 86  1  0
M  END
