
     RDKit          3D

 86 99  0  0  0  0  0  0  0  0999 V2000
    4.0714    3.5000   -5.1842 C   0  0  0  0  0  0  0  0  0  0  0  0
    3.1153    2.7495   -4.5411 C   0  0  0  0  0  0  0  0  0  0  0  0
    3.6462    1.9990   -3.4391 C   0  0  0  0  0  0  0  0  0  0  0  0
    3.0123    1.1162   -2.5319 C   0  0  0  0  0  0  0  0  0  0  0  0
    3.7155    0.4576   -1.4900 C   0  0  0  0  0  0  0  0  0  0  0  0
    5.0947    0.7089   -1.3789 C   0  0  0  0  0  0  0  0  0  0  0  0
    5.8327    0.0833   -0.3668 C   0  0  0  0  0  0  0  0  0  0  0  0
    5.2461   -0.7965    0.5511 C   0  0  0  0  0  0  0  0  0  0  0  0
    6.0446   -1.3924    1.5433 C   0  0  0  0  0  0  0  0  0  0  0  0
    5.4670   -2.2781    2.4699 C   0  0  0  0  0  0  0  0  0  0  0  0
    6.2610   -3.1081    3.7543 S   0  0  0  0  0  0  0  0  0  0  0  0
    4.8188   -3.8703    4.2506 C   0  0  0  0  0  0  0  0  0  0  0  0
    3.7499   -3.5076    3.4649 C   0  0  0  0  0  0  0  0  0  0  0  0
    4.1098   -2.5835    2.4278 C   0  0  0  0  0  0  0  0  0  0  0  0
    3.3238   -1.9719    1.4211 C   0  0  0  0  0  0  0  0  0  0  0  0
    3.8693   -1.0720    0.4690 C   0  0  0  0  0  0  0  0  0  0  0  0
    3.0964   -0.4384   -0.5580 C   0  0  0  0  0  0  0  0  0  0  0  0
    1.6274   -0.7115   -0.6573 C   0  0  0  0  0  0  0  0  0  0  0  0
    1.1708   -1.7946   -1.4721 C   0  0  0  0  0  0  0  0  0  0  0  0
    2.0274   -2.6536   -2.2070 C   0  0  0  0  0  0  0  0  0  0  0  0
    1.5331   -3.6986   -2.9904 C   0  0  0  0  0  0  0  0  0  0  0  0
    0.1658   -3.9167   -3.0628 C   0  0  0  0  0  0  0  0  0  0  0  0
   -0.7005   -3.0896   -2.3516 C   0  0  0  0  0  0  0  0  0  0  0  0
   -0.2129   -2.0342   -1.5603 C   0  0  0  0  0  0  0  0  0  0  0  0
   -1.1049   -1.2147   -0.8558 C   0  0  0  0  0  0  0  0  0  0  0  0
   -0.6923   -0.1364   -0.0402 C   0  0  0  0  0  0  0  0  0  0  0  0
   -1.6251    0.6920    0.6731 C   0  0  0  0  0  0  0  0  0  0  0  0
   -3.0957    0.4316    0.5609 C   0  0  0  0  0  0  0  0  0  0  0  0
   -3.7307   -0.4674    1.4787 C   0  0  0  0  0  0  0  0  0  0  0  0
   -3.0415   -1.1473    2.5163 C   0  0  0  0  0  0  0  0  0  0  0  0
   -3.6923   -2.0337    3.4086 C   0  0  0  0  0  0  0  0  0  0  0  0
   -3.1783   -2.8045    4.5045 C   0  0  0  0  0  0  0  0  0  0  0  0
   -4.1475   -3.5521    5.1316 C   0  0  0  0  0  0  0  0  0  0  0  0
   -5.6798   -3.3376    4.4148 S   0  0  0  0  0  0  0  0  0  0  0  0
   -5.0605   -2.2320    3.2473 C   0  0  0  0  0  0  0  0  0  0  0  0
   -5.7785   -1.5745    2.2331 C   0  0  0  0  0  0  0  0  0  0  0  0
   -5.1127   -0.6991    1.3571 C   0  0  0  0  0  0  0  0  0  0  0  0
   -5.8386   -0.0500    0.3508 C   0  0  0  0  0  0  0  0  0  0  0  0
   -5.2360    0.8322   -0.5541 C   0  0  0  0  0  0  0  0  0  0  0  0
   -3.8555    1.0859   -0.4635 C   0  0  0  0  0  0  0  0  0  0  0  0
   -3.2927    1.9868   -1.4043 C   0  0  0  0  0  0  0  0  0  0  0  0
   -4.0648    2.6211   -2.4074 C   0  0  0  0  0  0  0  0  0  0  0  0
   -3.6853    3.5485   -3.4346 C   0  0  0  0  0  0  0  0  0  0  0  0
   -4.7453    3.9374   -4.2197 C   0  0  0  0  0  0  0  0  0  0  0  0
   -6.2024    3.1964   -3.7341 S   0  0  0  0  0  0  0  0  0  0  0  0
   -5.4268    2.3389   -2.4566 C   0  0  0  0  0  0  0  0  0  0  0  0
   -6.0220    1.4526   -1.5416 C   0  0  0  0  0  0  0  0  0  0  0  0
   -1.1675    1.7731    1.4906 C   0  0  0  0  0  0  0  0  0  0  0  0
   -2.0231    2.6329    2.2256 C   0  0  0  0  0  0  0  0  0  0  0  0
   -1.5278    3.6777    3.0088 C   0  0  0  0  0  0  0  0  0  0  0  0
   -0.1604    3.8950    3.0814 C   0  0  0  0  0  0  0  0  0  0  0  0
    0.7050    3.0663    2.3712 C   0  0  0  0  0  0  0  0  0  0  0  0
    0.2163    2.0115    1.5798 C   0  0  0  0  0  0  0  0  0  0  0  0
    1.1074    1.1924    0.8743 C   0  0  0  0  0  0  0  0  0  0  0  0
    0.6943    0.1145    0.0585 C   0  0  0  0  0  0  0  0  0  0  0  0
    5.7450    1.5809   -2.2703 C   0  0  0  0  0  0  0  0  0  0  0  0
    5.0127    2.2160   -3.2889 C   0  0  0  0  0  0  0  0  0  0  0  0
    5.6108    3.3131   -4.4749 S   0  0  0  0  0  0  0  0  0  0  0  0
    3.9399    4.1501   -6.0384 H   0  0  0  0  0  0  0  0  0  0  0  0
    2.0748    2.7329   -4.8419 H   0  0  0  0  0  0  0  0  0  0  0  0
    1.9444    0.9525   -2.6606 H   0  0  0  0  0  0  0  0  0  0  0  0
    6.9010    0.2877   -0.2912 H   0  0  0  0  0  0  0  0  0  0  0  0
    7.1088   -1.1775    1.6040 H   0  0  0  0  0  0  0  0  0  0  0  0
    4.8213   -4.5479    5.0933 H   0  0  0  0  0  0  0  0  0  0  0  0
    2.7469   -3.8858    3.6202 H   0  0  0  0  0  0  0  0  0  0  0  0
    2.2647   -2.2194    1.3967 H   0  0  0  0  0  0  0  0  0  0  0  0
    3.1069   -2.5163   -2.1774 H   0  0  0  0  0  0  0  0  0  0  0  0
    2.2200   -4.3366   -3.5401 H   0  0  0  0  0  0  0  0  0  0  0  0
   -0.2285   -4.7272   -3.6695 H   0  0  0  0  0  0  0  0  0  0  0  0
   -1.7707   -3.2762   -2.4199 H   0  0  0  0  0  0  0  0  0  0  0  0
   -2.1684   -1.4332   -0.9521 H   0  0  0  0  0  0  0  0  0  0  0  0
   -1.9725   -0.9982    2.6530 H   0  0  0  0  0  0  0  0  0  0  0  0
   -2.1400   -2.8039    4.8129 H   0  0  0  0  0  0  0  0  0  0  0  0
   -4.0287   -4.2147    5.9779 H   0  0  0  0  0  0  0  0  0  0  0  0
   -6.8473   -1.7511    2.1368 H   0  0  0  0  0  0  0  0  0  0  0  0
   -6.9097   -0.2375    0.2694 H   0  0  0  0  0  0  0  0  0  0  0  0
   -2.2297    2.2167   -1.3745 H   0  0  0  0  0  0  0  0  0  0  0  0
   -2.6749    3.9091   -3.5838 H   0  0  0  0  0  0  0  0  0  0  0  0
   -4.7342    4.6226   -5.0562 H   0  0  0  0  0  0  0  0  0  0  0  0
   -7.0895    1.2555   -1.6083 H   0  0  0  0  0  0  0  0  0  0  0  0
   -3.1026    2.4969    2.1957 H   0  0  0  0  0  0  0  0  0  0  0  0
   -2.2141    4.3166    3.5579 H   0  0  0  0  0  0  0  0  0  0  0  0
    0.2344    4.7055    3.6877 H   0  0  0  0  0  0  0  0  0  0  0  0
    1.7755    3.2514    2.4395 H   0  0  0  0  0  0  0  0  0  0  0  0
    2.1709    1.4111    0.9701 H   0  0  0  0  0  0  0  0  0  0  0  0
    6.8119    1.7727   -2.1826 H   0  0  0  0  0  0  0  0  0  0  0  0
  1  2  4  0
  2  3  4  0
  3  4  4  0
  4  5  4  0
  5  6  4  0
  6  7  4  0
  7  8  4  0
  8  9  4  0
  9 10  4  0
 10 11  4  0
 11 12  4  0
 12 13  4  0
 13 14  4  0
 14 15  4  0
 15 16  4  0
 16 17  4  0
 17 18  1  0
 18 19  4  0
 19 20  4  0
 20 21  4  0
 21 22  4  0
 22 23  4  0
 23 24  4  0
 24 25  4  0
 25 26  4  0
 26 27  4  0
 27 28  1  0
 28 29  4  0
 29 30  4  0
 30 31  4  0
 31 32  4  0
 32 33  4  0
 33 34  4  0
 34 35  4  0
 35 36  4  0
 36 37  4  0
 37 38  4  0
 38 39  4  0
 39 40  4  0
 40 41  4  0
 41 42  4  0
 42 43  4  0
 43 44  4  0
 44 45  4  0
 45 46  4  0
 46 47  4  0
 27 48  4  0
 48 49  4  0
 49 50  4  0
 50 51  4  0
 51 52  4  0
 52 53  4  0
 53 54  4  0
 54 55  4  0
  6 56  4  0
 56 57  4  0
 57 58  4  0
 58  1  4  0
 57  3  4  0
 17  5  4  0
 55 18  4  0
 16  8  4  0
 24 19  4  0
 55 26  4  0
 14 10  4  0
 40 28  4  0
 46 42  4  0
 53 48  4  0
 37 29  4  0
 47 39  4  0
 35 31  4  0
  1 59  1  0
  2 60  1  0
  4 61  1  0
  7 62  1  0
  9 63  1  0
 12 64  1  0
 13 65  1  0
 15 66  1  0
 20 67  1  0
 21 68  1  0
 22 69  1  0
 23 70  1  0
 25 71  1  0
 30 72  1  0
 32 73  1  0
 33 74  1  0
 36 75  1  0
 38 76  1  0
 41 77  1  0
 43 78  1  0
 44 79  1  0
 47 80  1  0
 49 81  1  0
 50 82  1  0
 51 83  1  0
 52 84  1  0
 54 85  1  0
 56 86  1  0
M  END
