
     RDKit          3D

 86 99  0  0  0  0  0  0  0  0999 V2000
    5.6657    5.7123   -2.9018 C   0  0  0  0  0  0  0  0  0  0  0  0
    6.4956    4.9225   -2.1412 C   0  0  0  0  0  0  0  0  0  0  0  0
    5.8527    3.7281   -1.6718 C   0  0  0  0  0  0  0  0  0  0  0  0
    6.3468    2.6678   -0.8747 C   0  0  0  0  0  0  0  0  0  0  0  0
    5.5296    1.5765   -0.5271 C   0  0  0  0  0  0  0  0  0  0  0  0
    4.2027    1.5332   -0.9742 C   0  0  0  0  0  0  0  0  0  0  0  0
    3.6969    2.5763   -1.7681 C   0  0  0  0  0  0  0  0  0  0  0  0
    4.5289    3.6612   -2.1064 C   0  0  0  0  0  0  0  0  0  0  0  0
    4.1099    5.0338   -3.0613 S   0  0  0  0  0  0  0  0  0  0  0  0
    3.3985    0.4370   -0.6173 C   0  0  0  0  0  0  0  0  0  0  0  0
    3.8747   -0.6353    0.1756 C   0  0  0  0  0  0  0  0  0  0  0  0
    5.2102   -0.5734    0.6123 C   0  0  0  0  0  0  0  0  0  0  0  0
    6.0161    0.5231    0.2609 C   0  0  0  0  0  0  0  0  0  0  0  0
    5.7406   -1.6068    1.3988 C   0  0  0  0  0  0  0  0  0  0  0  0
    4.9651   -2.7274    1.7715 C   0  0  0  0  0  0  0  0  0  0  0  0
    5.3241   -3.8725    2.5604 C   0  0  0  0  0  0  0  0  0  0  0  0
    4.2911   -4.7642    2.7098 C   0  0  0  0  0  0  0  0  0  0  0  0
    2.8839   -4.2433    1.9093 S   0  0  0  0  0  0  0  0  0  0  0  0
    3.6394   -2.7882    1.3373 C   0  0  0  0  0  0  0  0  0  0  0  0
    3.0651   -1.7557    0.5397 C   0  0  0  0  0  0  0  0  0  0  0  0
    1.6441   -1.8798    0.1149 C   0  0  0  0  0  0  0  0  0  0  0  0
    1.3397   -2.5057   -1.1344 C   0  0  0  0  0  0  0  0  0  0  0  0
    2.3157   -3.0183   -2.0274 C   0  0  0  0  0  0  0  0  0  0  0  0
    1.9686   -3.6171   -3.2403 C   0  0  0  0  0  0  0  0  0  0  0  0
    0.6332   -3.7227   -3.5974 C   0  0  0  0  0  0  0  0  0  0  0  0
   -0.3482   -3.2309   -2.7399 C   0  0  0  0  0  0  0  0  0  0  0  0
   -0.0088   -2.6259   -1.5165 C   0  0  0  0  0  0  0  0  0  0  0  0
   -1.0145   -2.1405   -0.6705 C   0  0  0  0  0  0  0  0  0  0  0  0
   -0.7539   -1.5147    0.5702 C   0  0  0  0  0  0  0  0  0  0  0  0
   -1.8021   -1.0269    1.4237 C   0  0  0  0  0  0  0  0  0  0  0  0
   -3.2253   -1.1887    1.0193 C   0  0  0  0  0  0  0  0  0  0  0  0
   -3.9191   -2.3765    1.3921 C   0  0  0  0  0  0  0  0  0  0  0  0
   -3.3142   -3.7292    2.2969 S   0  0  0  0  0  0  0  0  0  0  0  0
   -4.7951   -4.5610    2.2123 C   0  0  0  0  0  0  0  0  0  0  0  0
   -5.7429   -3.8490    1.5197 C   0  0  0  0  0  0  0  0  0  0  0  0
   -5.2538   -2.5870    1.0396 C   0  0  0  0  0  0  0  0  0  0  0  0
   -5.9156   -1.5849    0.2954 C   0  0  0  0  0  0  0  0  0  0  0  0
   -5.2659   -0.4023   -0.0875 C   0  0  0  0  0  0  0  0  0  0  0  0
   -5.9608    0.5711   -0.8261 C   0  0  0  0  0  0  0  0  0  0  0  0
   -5.3511    1.7686   -1.2286 C   0  0  0  0  0  0  0  0  0  0  0  0
   -4.0125    1.9977   -0.8844 C   0  0  0  0  0  0  0  0  0  0  0  0
   -3.3824    3.1908   -1.2756 C   0  0  0  0  0  0  0  0  0  0  0  0
   -4.1037    4.1497   -2.0133 C   0  0  0  0  0  0  0  0  0  0  0  0
   -3.5254    5.6684   -2.5878 S   0  0  0  0  0  0  0  0  0  0  0  0
   -5.0253    6.0536   -3.3008 C   0  0  0  0  0  0  0  0  0  0  0  0
   -5.9547    5.0576   -3.1132 C   0  0  0  0  0  0  0  0  0  0  0  0
   -5.4370    3.9450   -2.3685 C   0  0  0  0  0  0  0  0  0  0  0  0
   -6.0564    2.7373   -1.9661 C   0  0  0  0  0  0  0  0  0  0  0  0
   -3.3211    1.0213   -0.1472 C   0  0  0  0  0  0  0  0  0  0  0  0
   -3.9215   -0.1917    0.2678 C   0  0  0  0  0  0  0  0  0  0  0  0
   -1.4963   -0.3818    2.6632 C   0  0  0  0  0  0  0  0  0  0  0  0
   -2.4714    0.1323    3.5566 C   0  0  0  0  0  0  0  0  0  0  0  0
   -2.1216    0.7610    4.7536 C   0  0  0  0  0  0  0  0  0  0  0  0
   -0.7845    0.8945    5.0948 C   0  0  0  0  0  0  0  0  0  0  0  0
    0.1957    0.3974    4.2393 C   0  0  0  0  0  0  0  0  0  0  0  0
   -0.1464   -0.2377    3.0321 C   0  0  0  0  0  0  0  0  0  0  0  0
    0.8586   -0.7315    2.1903 C   0  0  0  0  0  0  0  0  0  0  0  0
    0.5966   -1.3759    0.9596 C   0  0  0  0  0  0  0  0  0  0  0  0
    5.8993    6.6574   -3.3727 H   0  0  0  0  0  0  0  0  0  0  0  0
    7.5244    5.1840   -1.9263 H   0  0  0  0  0  0  0  0  0  0  0  0
    7.3778    2.7080   -0.5315 H   0  0  0  0  0  0  0  0  0  0  0  0
    2.6702    2.5543   -2.1243 H   0  0  0  0  0  0  0  0  0  0  0  0
    2.3686    0.4197   -0.9735 H   0  0  0  0  0  0  0  0  0  0  0  0
    7.0481    0.5579    0.6077 H   0  0  0  0  0  0  0  0  0  0  0  0
    6.7743   -1.5584    1.7361 H   0  0  0  0  0  0  0  0  0  0  0  0
    6.3032   -4.0274    2.9968 H   0  0  0  0  0  0  0  0  0  0  0  0
    4.2952   -5.6996    3.2522 H   0  0  0  0  0  0  0  0  0  0  0  0
    3.3746   -2.9550   -1.7846 H   0  0  0  0  0  0  0  0  0  0  0  0
    2.7441   -3.9985   -3.8990 H   0  0  0  0  0  0  0  0  0  0  0  0
    0.3524   -4.1870   -4.5384 H   0  0  0  0  0  0  0  0  0  0  0  0
   -1.3915   -3.3245   -3.0354 H   0  0  0  0  0  0  0  0  0  0  0  0
   -2.0460   -2.2583   -1.0009 H   0  0  0  0  0  0  0  0  0  0  0  0
   -4.9013   -5.5328    2.6743 H   0  0  0  0  0  0  0  0  0  0  0  0
   -6.7508   -4.2114    1.3583 H   0  0  0  0  0  0  0  0  0  0  0  0
   -6.9559   -1.7476    0.0203 H   0  0  0  0  0  0  0  0  0  0  0  0
   -7.0013    0.3935   -1.0945 H   0  0  0  0  0  0  0  0  0  0  0  0
   -2.3452    3.3826   -1.0133 H   0  0  0  0  0  0  0  0  0  0  0  0
   -5.1557    6.9912   -3.8234 H   0  0  0  0  0  0  0  0  0  0  0  0
   -6.9677    5.1171   -3.4918 H   0  0  0  0  0  0  0  0  0  0  0  0
   -7.0960    2.5676   -2.2364 H   0  0  0  0  0  0  0  0  0  0  0  0
   -2.2808    1.2170    0.1124 H   0  0  0  0  0  0  0  0  0  0  0  0
   -3.5316    0.0473    3.3262 H   0  0  0  0  0  0  0  0  0  0  0  0
   -2.8964    1.1427    5.4129 H   0  0  0  0  0  0  0  0  0  0  0  0
   -0.5014    1.3821    6.0235 H   0  0  0  0  0  0  0  0  0  0  0  0
    1.2403    0.5105    4.5232 H   0  0  0  0  0  0  0  0  0  0  0  0
    1.8906   -0.6037    2.5151 H   0  0  0  0  0  0  0  0  0  0  0  0
  1  2  4  0
  2  3  4  0
  3  4  4  0
  4  5  4  0
  5  6  4  0
  6  7  4  0
  7  8  4  0
  8  9  4  0
  6 10  4  0
 10 11  4  0
 11 12  4  0
 12 13  4  0
 12 14  4  0
 14 15  4  0
 15 16  4  0
 16 17  4  0
 17 18  4  0
 18 19  4  0
 19 20  4  0
 20 21  1  0
 21 22  4  0
 22 23  4  0
 23 24  4  0
 24 25  4  0
 25 26  4  0
 26 27  4  0
 27 28  4  0
 28 29  4  0
 29 30  4  0
 30 31  1  0
 31 32  4  0
 32 33  4  0
 33 34  4  0
 34 35  4  0
 35 36  4  0
 36 37  4  0
 37 38  4  0
 38 39  4  0
 39 40  4  0
 40 41  4  0
 41 42  4  0
 42 43  4  0
 43 44  4  0
 44 45  4  0
 45 46  4  0
 46 47  4  0
 47 48  4  0
 41 49  4  0
 49 50  4  0
 30 51  4  0
 51 52  4  0
 52 53  4  0
 53 54  4  0
 54 55  4  0
 55 56  4  0
 56 57  4  0
 57 58  4  0
  9  1  4  0
 20 11  4  0
 58 21  4  0
  8  3  4  0
 19 15  4  0
 27 22  4  0
 58 29  4  0
 13  5  4  0
 50 31  4  0
 56 51  4  0
 36 32  4  0
 50 38  4  0
 48 40  4  0
 47 43  4  0
  1 59  1  0
  2 60  1  0
  4 61  1  0
  7 62  1  0
 10 63  1  0
 13 64  1  0
 14 65  1  0
 16 66  1  0
 17 67  1  0
 23 68  1  0
 24 69  1  0
 25 70  1  0
 26 71  1  0
 28 72  1  0
 34 73  1  0
 35 74  1  0
 37 75  1  0
 39 76  1  0
 42 77  1  0
 45 78  1  0
 46 79  1  0
 48 80  1  0
 49 81  1  0
 52 82  1  0
 53 83  1  0
 54 84  1  0
 55 85  1  0
 57 86  1  0
M  END
