
     RDKit          3D

 80 91  0  0  0  0  0  0  0  0999 V2000
   -3.0637   -1.7857   -3.8833 C   0  0  0  0  0  0  0  0  0  0  0  0
   -4.3194   -2.0367   -3.3378 C   0  0  0  0  0  0  0  0  0  0  0  0
   -4.6756   -1.5333   -2.0768 C   0  0  0  0  0  0  0  0  0  0  0  0
   -5.9495   -1.8020   -1.5472 C   0  0  0  0  0  0  0  0  0  0  0  0
   -6.3540   -1.3226   -0.2960 C   0  0  0  0  0  0  0  0  0  0  0  0
   -7.6582   -1.6410    0.1631 C   0  0  0  0  0  0  0  0  0  0  0  0
   -7.9336   -1.1027    1.4188 C   0  0  0  0  0  0  0  0  0  0  0  0
   -9.1321   -1.2780    2.0646 C   0  0  0  0  0  0  0  0  0  0  0  0
   -9.1361   -0.4817    3.5914 S   0  0  0  0  0  0  0  0  0  0  0  0
   -7.5278    0.0955    3.3791 C   0  0  0  0  0  0  0  0  0  0  0  0
   -7.0110   -0.3129    2.1748 C   0  0  0  0  0  0  0  0  0  0  0  0
   -5.7257    0.0134    1.7470 C   0  0  0  0  0  0  0  0  0  0  0  0
   -5.4201   -0.5235    0.4698 C   0  0  0  0  0  0  0  0  0  0  0  0
   -4.1551   -0.2685   -0.0761 C   0  0  0  0  0  0  0  0  0  0  0  0
   -3.7503   -0.7566   -1.3417 C   0  0  0  0  0  0  0  0  0  0  0  0
   -2.4636   -0.5043   -1.9036 C   0  0  0  0  0  0  0  0  0  0  0  0
   -1.4286    0.2956   -1.1933 C   0  0  0  0  0  0  0  0  0  0  0  0
   -1.3681    1.7082   -1.4065 C   0  0  0  0  0  0  0  0  0  0  0  0
   -2.2513    2.4238   -2.2555 C   0  0  0  0  0  0  0  0  0  0  0  0
   -2.1518    3.8055   -2.4325 C   0  0  0  0  0  0  0  0  0  0  0  0
   -1.1644    4.5146   -1.7657 C   0  0  0  0  0  0  0  0  0  0  0  0
   -0.2840    3.8398   -0.9228 C   0  0  0  0  0  0  0  0  0  0  0  0
   -0.3778    2.4490   -0.7351 C   0  0  0  0  0  0  0  0  0  0  0  0
    0.5139    1.7938    0.1250 C   0  0  0  0  0  0  0  0  0  0  0  0
    0.4790    0.4016    0.3695 C   0  0  0  0  0  0  0  0  0  0  0  0
    1.3961   -0.2480    1.2649 C   0  0  0  0  0  0  0  0  0  0  0  0
    2.4171    0.5536    1.9940 C   0  0  0  0  0  0  0  0  0  0  0  0
    2.0598    1.0982    3.2427 C   0  0  0  0  0  0  0  0  0  0  0  0
    2.9642    1.8567    3.9755 C   0  0  0  0  0  0  0  0  0  0  0  0
    4.2422    2.0808    3.4725 C   0  0  0  0  0  0  0  0  0  0  0  0
    4.6370    1.5522    2.2338 C   0  0  0  0  0  0  0  0  0  0  0  0
    5.9360    1.7898    1.7518 C   0  0  0  0  0  0  0  0  0  0  0  0
    6.3805    1.2848    0.5248 C   0  0  0  0  0  0  0  0  0  0  0  0
    7.7093    1.5699    0.1155 C   0  0  0  0  0  0  0  0  0  0  0  0
    8.0236    1.0082   -1.1206 C   0  0  0  0  0  0  0  0  0  0  0  0
    9.2513    1.1477   -1.7186 C   0  0  0  0  0  0  0  0  0  0  0  0
    9.2997    0.3301   -3.2334 S   0  0  0  0  0  0  0  0  0  0  0  0
    7.6714   -0.2081   -3.0800 C   0  0  0  0  0  0  0  0  0  0  0  0
    7.1152    0.2279   -1.9033 C   0  0  0  0  0  0  0  0  0  0  0  0
    5.8066   -0.0653   -1.5244 C   0  0  0  0  0  0  0  0  0  0  0  0
    5.4609    0.4942   -0.2674 C   0  0  0  0  0  0  0  0  0  0  0  0
    4.1702    0.2701    0.2313 C   0  0  0  0  0  0  0  0  0  0  0  0
    3.7265    0.7805    1.4748 C   0  0  0  0  0  0  0  0  0  0  0  0
    1.3318   -1.6607    1.4800 C   0  0  0  0  0  0  0  0  0  0  0  0
    2.2032   -2.3762    2.3411 C   0  0  0  0  0  0  0  0  0  0  0  0
    2.0999   -3.7578    2.5195 C   0  0  0  0  0  0  0  0  0  0  0  0
    1.1195   -4.4669    1.8425 C   0  0  0  0  0  0  0  0  0  0  0  0
    0.2496   -3.7925    0.9891 C   0  0  0  0  0  0  0  0  0  0  0  0
    0.3473   -2.4020    0.8010 C   0  0  0  0  0  0  0  0  0  0  0  0
   -0.5389   -1.7471   -0.0640 C   0  0  0  0  0  0  0  0  0  0  0  0
   -0.5052   -0.3545   -0.3052 C   0  0  0  0  0  0  0  0  0  0  0  0
   -2.1432   -1.0260   -3.1717 C   0  0  0  0  0  0  0  0  0  0  0  0
   -2.8039   -2.1819   -4.8614 H   0  0  0  0  0  0  0  0  0  0  0  0
   -5.0257   -2.6341   -3.9115 H   0  0  0  0  0  0  0  0  0  0  0  0
   -6.6439   -2.4043   -2.1323 H   0  0  0  0  0  0  0  0  0  0  0  0
   -8.3591   -2.2379   -0.4059 H   0  0  0  0  0  0  0  0  0  0  0  0
  -10.0075   -1.8227    1.7393 H   0  0  0  0  0  0  0  0  0  0  0  0
   -7.0647    0.6964    4.1495 H   0  0  0  0  0  0  0  0  0  0  0  0
   -5.0290    0.6111    2.3211 H   0  0  0  0  0  0  0  0  0  0  0  0
   -3.4553    0.3337    0.5033 H   0  0  0  0  0  0  0  0  0  0  0  0
   -3.0418    1.9041   -2.7941 H   0  0  0  0  0  0  0  0  0  0  0  0
   -2.8469    4.3201   -3.0903 H   0  0  0  0  0  0  0  0  0  0  0  0
   -1.0776    5.5895   -1.8977 H   0  0  0  0  0  0  0  0  0  0  0  0
    0.4839    4.4130   -0.4064 H   0  0  0  0  0  0  0  0  0  0  0  0
    1.2672    2.4026    0.6247 H   0  0  0  0  0  0  0  0  0  0  0  0
    1.0625    0.9253    3.6441 H   0  0  0  0  0  0  0  0  0  0  0  0
    2.6751    2.2713    4.9375 H   0  0  0  0  0  0  0  0  0  0  0  0
    4.9357    2.6769    4.0626 H   0  0  0  0  0  0  0  0  0  0  0  0
    6.6187    2.3862    2.3565 H   0  0  0  0  0  0  0  0  0  0  0  0
    8.3992    2.1596    0.7051 H   0  0  0  0  0  0  0  0  0  0  0  0
   10.1249    1.6773   -1.3646 H   0  0  0  0  0  0  0  0  0  0  0  0
    7.2260   -0.8090   -3.8608 H   0  0  0  0  0  0  0  0  0  0  0  0
    5.1218   -0.6568   -2.1187 H   0  0  0  0  0  0  0  0  0  0  0  0
    3.4818   -0.3263   -0.3674 H   0  0  0  0  0  0  0  0  0  0  0  0
    2.9868   -1.8563    2.8893 H   0  0  0  0  0  0  0  0  0  0  0  0
    2.7865   -4.2720    3.1867 H   0  0  0  0  0  0  0  0  0  0  0  0
    1.0291   -5.5413    1.9756 H   0  0  0  0  0  0  0  0  0  0  0  0
   -0.5141   -4.3653    0.4661 H   0  0  0  0  0  0  0  0  0  0  0  0
   -1.2902   -2.3561   -0.5667 H   0  0  0  0  0  0  0  0  0  0  0  0
   -1.1625   -0.8344   -3.6044 H   0  0  0  0  0  0  0  0  0  0  0  0
  1  2  4  0
  2  3  4  0
  3  4  4  0
  4  5  4  0
  5  6  4  0
  6  7  4  0
  7  8  4  0
  8  9  4  0
  9 10  4  0
 10 11  4  0
 11 12  4  0
 12 13  4  0
 13 14  4  0
 14 15  4  0
 15 16  4  0
 16 17  1  0
 17 18  4  0
 18 19  4  0
 19 20  4  0
 20 21  4  0
 21 22  4  0
 22 23  4  0
 23 24  4  0
 24 25  4  0
 25 26  4  0
 26 27  1  0
 27 28  4  0
 28 29  4  0
 29 30  4  0
 30 31  4  0
 31 32  4  0
 32 33  4  0
 33 34  4  0
 34 35  4  0
 35 36  4  0
 36 37  4  0
 37 38  4  0
 38 39  4  0
 39 40  4  0
 40 41  4  0
 41 42  4  0
 42 43  4  0
 26 44  4  0
 44 45  4  0
 45 46  4  0
 46 47  4  0
 47 48  4  0
 48 49  4  0
 49 50  4  0
 50 51  4  0
 16 52  4  0
 52  1  4  0
 15  3  4  0
 51 17  4  0
 13  5  4  0
 23 18  4  0
 51 25  4  0
 11  7  4  0
 43 27  4  0
 49 44  4  0
 43 31  4  0
 41 33  4  0
 39 35  4  0
  1 53  1  0
  2 54  1  0
  4 55  1  0
  6 56  1  0
  8 57  1  0
 10 58  1  0
 12 59  1  0
 14 60  1  0
 19 61  1  0
 20 62  1  0
 21 63  1  0
 22 64  1  0
 24 65  1  0
 28 66  1  0
 29 67  1  0
 30 68  1  0
 32 69  1  0
 34 70  1  0
 36 71  1  0
 38 72  1  0
 40 73  1  0
 42 74  1  0
 45 75  1  0
 46 76  1  0
 47 77  1  0
 48 78  1  0
 50 79  1  0
 52 80  1  0
M  END
