
     RDKit          3D

110125  0  0  0  0  0  0  0  0999 V2000
    6.3382   -1.9867   -8.4785 C   0  0  0  0  0  0  0  0  0  0  0  0
    5.0929   -1.3936   -8.6609 C   0  0  0  0  0  0  0  0  0  0  0  0
    4.3524   -0.9736   -7.5548 C   0  0  0  0  0  0  0  0  0  0  0  0
    4.8488   -1.1418   -6.2513 C   0  0  0  0  0  0  0  0  0  0  0  0
    4.1161   -0.7244   -5.1277 C   0  0  0  0  0  0  0  0  0  0  0  0
    4.6134   -0.8930   -3.8244 C   0  0  0  0  0  0  0  0  0  0  0  0
    3.8807   -0.4754   -2.7007 C   0  0  0  0  0  0  0  0  0  0  0  0
    4.3775   -0.6436   -1.3974 C   0  0  0  0  0  0  0  0  0  0  0  0
    3.6442   -0.2255   -0.2747 C   0  0  0  0  0  0  0  0  0  0  0  0
    4.1412   -0.3906    1.0288 C   0  0  0  0  0  0  0  0  0  0  0  0
    3.4084    0.0304    2.1518 C   0  0  0  0  0  0  0  0  0  0  0  0
    3.8923   -0.1193    3.4725 C   0  0  0  0  0  0  0  0  0  0  0  0
    5.1614   -0.7216    3.6422 C   0  0  0  0  0  0  0  0  0  0  0  0
    5.8926   -1.1463    2.5194 C   0  0  0  0  0  0  0  0  0  0  0  0
    5.3996   -0.9873    1.2148 C   0  0  0  0  0  0  0  0  0  0  0  0
    6.1339   -1.4082    0.0923 C   0  0  0  0  0  0  0  0  0  0  0  0
    5.6379   -1.2430   -1.2121 C   0  0  0  0  0  0  0  0  0  0  0  0
    6.3708   -1.6610   -2.3358 C   0  0  0  0  0  0  0  0  0  0  0  0
    5.8742   -1.4934   -3.6397 C   0  0  0  0  0  0  0  0  0  0  0  0
    6.6080   -1.9111   -4.7630 C   0  0  0  0  0  0  0  0  0  0  0  0
    6.1117   -1.7432   -6.0664 C   0  0  0  0  0  0  0  0  0  0  0  0
    6.8449   -2.1606   -7.1897 C   0  0  0  0  0  0  0  0  0  0  0  0
    5.6871   -0.8917    4.9321 C   0  0  0  0  0  0  0  0  0  0  0  0
    4.9811   -0.4724    6.0559 C   0  0  0  0  0  0  0  0  0  0  0  0
    3.7339    0.1221    5.9041 C   0  0  0  0  0  0  0  0  0  0  0  0
    3.1704    0.3053    4.6268 C   0  0  0  0  0  0  0  0  0  0  0  0
    1.8273    0.9411    4.5384 C   0  0  0  0  0  0  0  0  0  0  0  0
    1.7331    2.3585    4.3718 C   0  0  0  0  0  0  0  0  0  0  0  0
    2.8520    3.2243    4.2653 C   0  0  0  0  0  0  0  0  0  0  0  0
    2.7091    4.6033    4.0952 C   0  0  0  0  0  0  0  0  0  0  0  0
    1.4411    5.1599    4.0274 C   0  0  0  0  0  0  0  0  0  0  0  0
    0.3228    4.3356    4.1309 C   0  0  0  0  0  0  0  0  0  0  0  0
    0.4563    2.9457    4.3024 C   0  0  0  0  0  0  0  0  0  0  0  0
   -0.6840    2.1377    4.4054 C   0  0  0  0  0  0  0  0  0  0  0  0
   -0.6320    0.7347    4.5721 C   0  0  0  0  0  0  0  0  0  0  0  0
   -1.8153   -0.0735    4.6783 C   0  0  0  0  0  0  0  0  0  0  0  0
   -3.1581    0.5675    4.6458 C   0  0  0  0  0  0  0  0  0  0  0  0
   -3.7177    0.9945    5.8656 C   0  0  0  0  0  0  0  0  0  0  0  0
   -4.9673    1.6018    5.9045 C   0  0  0  0  0  0  0  0  0  0  0  0
   -5.6790    1.7919    4.7237 C   0  0  0  0  0  0  0  0  0  0  0  0
   -5.1551    1.3787    3.4891 C   0  0  0  0  0  0  0  0  0  0  0  0
   -5.8901    1.5788    2.3084 C   0  0  0  0  0  0  0  0  0  0  0  0
   -5.3989    1.1779    1.0562 C   0  0  0  0  0  0  0  0  0  0  0  0
   -6.1365    1.3797   -0.1230 C   0  0  0  0  0  0  0  0  0  0  0  0
   -5.6424    0.9767   -1.3752 C   0  0  0  0  0  0  0  0  0  0  0  0
   -6.3785    1.1783   -2.5550 C   0  0  0  0  0  0  0  0  0  0  0  0
   -5.8836    0.7742   -3.8066 C   0  0  0  0  0  0  0  0  0  0  0  0
   -6.6204    0.9762   -4.9859 C   0  0  0  0  0  0  0  0  0  0  0  0
   -6.1260    0.5720   -6.2370 C   0  0  0  0  0  0  0  0  0  0  0  0
   -6.8622    0.7737   -7.4162 C   0  0  0  0  0  0  0  0  0  0  0  0
   -6.3573    0.3664   -8.6519 C   0  0  0  0  0  0  0  0  0  0  0  0
   -5.1108   -0.2474   -8.7247 C   0  0  0  0  0  0  0  0  0  0  0  0
   -4.3673   -0.4547   -7.5619 C   0  0  0  0  0  0  0  0  0  0  0  0
   -4.8618   -0.0504   -6.3108 C   0  0  0  0  0  0  0  0  0  0  0  0
   -4.1260   -0.2518   -5.1313 C   0  0  0  0  0  0  0  0  0  0  0  0
   -4.6216    0.1530   -3.8801 C   0  0  0  0  0  0  0  0  0  0  0  0
   -3.8859   -0.0483   -2.7001 C   0  0  0  0  0  0  0  0  0  0  0  0
   -4.3809    0.3562   -1.4489 C   0  0  0  0  0  0  0  0  0  0  0  0
   -3.6450    0.1554   -0.2691 C   0  0  0  0  0  0  0  0  0  0  0  0
   -4.1395    0.5599    0.9826 C   0  0  0  0  0  0  0  0  0  0  0  0
   -3.4035    0.3602    2.1635 C   0  0  0  0  0  0  0  0  0  0  0  0
   -3.8843    0.7588    3.4334 C   0  0  0  0  0  0  0  0  0  0  0  0
   -1.7216   -1.4929    4.8263 C   0  0  0  0  0  0  0  0  0  0  0  0
   -2.8410   -2.3585    4.9293 C   0  0  0  0  0  0  0  0  0  0  0  0
   -2.6993   -3.7411    5.0664 C   0  0  0  0  0  0  0  0  0  0  0  0
   -1.4318   -4.3015    5.1046 C   0  0  0  0  0  0  0  0  0  0  0  0
   -0.3129   -3.4771    5.0067 C   0  0  0  0  0  0  0  0  0  0  0  0
   -0.4453   -2.0834    4.8693 C   0  0  0  0  0  0  0  0  0  0  0  0
    0.6953   -1.2746    4.7746 C   0  0  0  0  0  0  0  0  0  0  0  0
    0.6439    0.1311    4.6298 C   0  0  0  0  0  0  0  0  0  0  0  0
    6.9165   -2.3145   -9.3383 H   0  0  0  0  0  0  0  0  0  0  0  0
    4.6962   -1.2571   -9.6636 H   0  0  0  0  0  0  0  0  0  0  0  0
    3.3811   -0.5122   -7.7179 H   0  0  0  0  0  0  0  0  0  0  0  0
    3.1420   -0.2603   -5.2714 H   0  0  0  0  0  0  0  0  0  0  0  0
    2.9063   -0.0103   -2.8418 H   0  0  0  0  0  0  0  0  0  0  0  0
    2.6697    0.2384   -0.4172 H   0  0  0  0  0  0  0  0  0  0  0  0
    2.4353    0.4920    1.9895 H   0  0  0  0  0  0  0  0  0  0  0  0
    6.8679   -1.6085    2.6631 H   0  0  0  0  0  0  0  0  0  0  0  0
    7.1087   -1.8706    0.2363 H   0  0  0  0  0  0  0  0  0  0  0  0
    7.3454   -2.1245   -2.1934 H   0  0  0  0  0  0  0  0  0  0  0  0
    7.5828   -2.3747   -4.6217 H   0  0  0  0  0  0  0  0  0  0  0  0
    7.8203   -2.6262   -7.0674 H   0  0  0  0  0  0  0  0  0  0  0  0
    6.6616   -1.3552    5.0723 H   0  0  0  0  0  0  0  0  0  0  0  0
    5.4027   -0.6088    7.0482 H   0  0  0  0  0  0  0  0  0  0  0  0
    3.1884    0.4471    6.7888 H   0  0  0  0  0  0  0  0  0  0  0  0
    3.8642    2.8262    4.3103 H   0  0  0  0  0  0  0  0  0  0  0  0
    3.5901    5.2345    4.0149 H   0  0  0  0  0  0  0  0  0  0  0  0
    1.3192    6.2313    3.8941 H   0  0  0  0  0  0  0  0  0  0  0  0
   -0.6649    4.7897    4.0753 H   0  0  0  0  0  0  0  0  0  0  0  0
   -1.6544    2.6307    4.3473 H   0  0  0  0  0  0  0  0  0  0  0  0
   -3.1681    0.8491    6.7944 H   0  0  0  0  0  0  0  0  0  0  0  0
   -5.3862    1.9262    6.8534 H   0  0  0  0  0  0  0  0  0  0  0  0
   -6.6559    2.2687    4.7750 H   0  0  0  0  0  0  0  0  0  0  0  0
   -6.8669    2.0562    2.3643 H   0  0  0  0  0  0  0  0  0  0  0  0
   -7.1123    1.8585   -0.0650 H   0  0  0  0  0  0  0  0  0  0  0  0
   -7.3543    1.6576   -2.4988 H   0  0  0  0  0  0  0  0  0  0  0  0
   -7.5957    1.4562   -4.9297 H   0  0  0  0  0  0  0  0  0  0  0  0
   -7.8385    1.2518   -7.3798 H   0  0  0  0  0  0  0  0  0  0  0  0
   -6.9380    0.5289   -9.5561 H   0  0  0  0  0  0  0  0  0  0  0  0
   -4.7156   -0.5654   -9.6860 H   0  0  0  0  0  0  0  0  0  0  0  0
   -3.3950   -0.9362   -7.6395 H   0  0  0  0  0  0  0  0  0  0  0  0
   -3.1508   -0.7319   -5.1887 H   0  0  0  0  0  0  0  0  0  0  0  0
   -2.9107   -0.5292   -2.7558 H   0  0  0  0  0  0  0  0  0  0  0  0
   -2.6689   -0.3237   -0.3247 H   0  0  0  0  0  0  0  0  0  0  0  0
   -2.4292   -0.1212    2.0890 H   0  0  0  0  0  0  0  0  0  0  0  0
   -3.8527   -1.9580    4.8984 H   0  0  0  0  0  0  0  0  0  0  0  0
   -3.5806   -4.3727    5.1397 H   0  0  0  0  0  0  0  0  0  0  0  0
   -1.3111   -5.3761    5.2084 H   0  0  0  0  0  0  0  0  0  0  0  0
    0.6744   -3.9344    5.0366 H   0  0  0  0  0  0  0  0  0  0  0  0
    1.6654   -1.7703    4.8109 H   0  0  0  0  0  0  0  0  0  0  0  0
  1  2  4  0
  2  3  4  0
  3  4  4  0
  4  5  4  0
  5  6  4  0
  6  7  4  0
  7  8  4  0
  8  9  4  0
  9 10  4  0
 10 11  4  0
 11 12  4  0
 12 13  4  0
 13 14  4  0
 14 15  4  0
 15 16  4  0
 16 17  4  0
 17 18  4  0
 18 19  4  0
 19 20  4  0
 20 21  4  0
 21 22  4  0
 13 23  4  0
 23 24  4  0
 24 25  4  0
 25 26  4  0
 26 27  1  0
 27 28  4  0
 28 29  4  0
 29 30  4  0
 30 31  4  0
 31 32  4  0
 32 33  4  0
 33 34  4  0
 34 35  4  0
 35 36  4  0
 36 37  1  0
 37 38  4  0
 38 39  4  0
 39 40  4  0
 40 41  4  0
 41 42  4  0
 42 43  4  0
 43 44  4  0
 44 45  4  0
 45 46  4  0
 46 47  4  0
 47 48  4  0
 48 49  4  0
 49 50  4  0
 50 51  4  0
 51 52  4  0
 52 53  4  0
 53 54  4  0
 54 55  4  0
 55 56  4  0
 56 57  4  0
 57 58  4  0
 58 59  4  0
 59 60  4  0
 60 61  4  0
 61 62  4  0
 36 63  4  0
 63 64  4  0
 64 65  4  0
 65 66  4  0
 66 67  4  0
 67 68  4  0
 68 69  4  0
 69 70  4  0
 22  1  4  0
 70 27  4  0
 21  4  4  0
 33 28  4  0
 70 35  4  0
 19  6  4  0
 62 37  4  0
 68 63  4  0
 17  8  4  0
 62 41  4  0
 15 10  4  0
 60 43  4  0
 26 12  4  0
 58 45  4  0
 56 47  4  0
 54 49  4  0
  1 71  1  0
  2 72  1  0
  3 73  1  0
  5 74  1  0
  7 75  1  0
  9 76  1  0
 11 77  1  0
 14 78  1  0
 16 79  1  0
 18 80  1  0
 20 81  1  0
 22 82  1  0
 23 83  1  0
 24 84  1  0
 25 85  1  0
 29 86  1  0
 30 87  1  0
 31 88  1  0
 32 89  1  0
 34 90  1  0
 38 91  1  0
 39 92  1  0
 40 93  1  0
 42 94  1  0
 44 95  1  0
 46 96  1  0
 48 97  1  0
 50 98  1  0
 51 99  1  0
 52100  1  0
 53101  1  0
 55102  1  0
 57103  1  0
 59104  1  0
 61105  1  0
 64106  1  0
 65107  1  0
 66108  1  0
 67109  1  0
 69110  1  0
M  END
