
     RDKit          3D

110125  0  0  0  0  0  0  0  0999 V2000
   -1.0232    4.9913   -5.1826 C   0  0  0  0  0  0  0  0  0  0  0  0
    0.0656    4.7050   -4.3653 C   0  0  0  0  0  0  0  0  0  0  0  0
   -0.0615    3.7643   -3.3429 C   0  0  0  0  0  0  0  0  0  0  0  0
   -1.2784    3.0957   -3.1288 C   0  0  0  0  0  0  0  0  0  0  0  0
   -1.4197    2.1249   -2.1207 C   0  0  0  0  0  0  0  0  0  0  0  0
   -2.6017    1.3632   -1.9269 C   0  0  0  0  0  0  0  0  0  0  0  0
   -3.7265    1.7972   -2.6612 C   0  0  0  0  0  0  0  0  0  0  0  0
   -3.5976    2.7460   -3.6928 C   0  0  0  0  0  0  0  0  0  0  0  0
   -2.3790    3.3883   -3.9496 C   0  0  0  0  0  0  0  0  0  0  0  0
   -2.2398    4.3393   -4.9751 C   0  0  0  0  0  0  0  0  0  0  0  0
   -4.9915    1.3357   -2.3109 C   0  0  0  0  0  0  0  0  0  0  0  0
   -5.1647    0.6672   -1.1026 C   0  0  0  0  0  0  0  0  0  0  0  0
   -6.4623    0.5084   -0.5828 C   0  0  0  0  0  0  0  0  0  0  0  0
   -6.6784    0.0280    0.7155 C   0  0  0  0  0  0  0  0  0  0  0  0
   -7.9719   -0.1125    1.2475 C   0  0  0  0  0  0  0  0  0  0  0  0
   -8.1766   -0.5499    2.5663 C   0  0  0  0  0  0  0  0  0  0  0  0
   -9.4682   -0.6880    3.1018 C   0  0  0  0  0  0  0  0  0  0  0  0
   -9.6542   -1.1184    4.4164 C   0  0  0  0  0  0  0  0  0  0  0  0
   -8.5522   -1.4168    5.2116 C   0  0  0  0  0  0  0  0  0  0  0  0
   -7.2625   -1.2852    4.6934 C   0  0  0  0  0  0  0  0  0  0  0  0
   -7.0589   -0.8520    3.3727 C   0  0  0  0  0  0  0  0  0  0  0  0
   -5.7682   -0.7119    2.8359 C   0  0  0  0  0  0  0  0  0  0  0  0
   -5.5676   -0.2789    1.5138 C   0  0  0  0  0  0  0  0  0  0  0  0
   -4.2776   -0.1508    0.9648 C   0  0  0  0  0  0  0  0  0  0  0  0
   -4.0331    0.2267   -0.3817 C   0  0  0  0  0  0  0  0  0  0  0  0
   -2.7430    0.2689   -1.0082 C   0  0  0  0  0  0  0  0  0  0  0  0
   -1.5880   -0.7364   -0.6748 C   0  0  0  0  0  0  0  0  0  0  0  0
   -1.7353   -1.8386    0.2239 C   0  0  0  0  0  0  0  0  0  0  0  0
   -2.9095   -2.6204    0.3862 C   0  0  0  0  0  0  0  0  0  0  0  0
   -3.0202   -3.6237    1.3536 C   0  0  0  0  0  0  0  0  0  0  0  0
   -1.9413   -3.9066    2.1750 C   0  0  0  0  0  0  0  0  0  0  0  0
   -0.7393   -3.2345    1.9758 C   0  0  0  0  0  0  0  0  0  0  0  0
   -0.6160   -2.2560    0.9731 C   0  0  0  0  0  0  0  0  0  0  0  0
    0.6414   -1.7439    0.6651 C   0  0  0  0  0  0  0  0  0  0  0  0
    0.8543   -1.0626   -0.5434 C   0  0  0  0  0  0  0  0  0  0  0  0
    2.1706   -0.8152   -1.0621 C   0  0  0  0  0  0  0  0  0  0  0  0
    3.3730   -1.1105   -0.2227 C   0  0  0  0  0  0  0  0  0  0  0  0
    3.8702   -0.1110    0.6755 C   0  0  0  0  0  0  0  0  0  0  0  0
    3.2890    1.1734    0.8269 C   0  0  0  0  0  0  0  0  0  0  0  0
    3.7928    2.1346    1.7204 C   0  0  0  0  0  0  0  0  0  0  0  0
    3.1939    3.3988    1.8556 C   0  0  0  0  0  0  0  0  0  0  0  0
    3.6992    4.3560    2.7507 C   0  0  0  0  0  0  0  0  0  0  0  0
    3.1014    5.6196    2.8880 C   0  0  0  0  0  0  0  0  0  0  0  0
    3.6155    6.5596    3.7825 C   0  0  0  0  0  0  0  0  0  0  0  0
    4.7329    6.2485    4.5510 C   0  0  0  0  0  0  0  0  0  0  0  0
    5.3378    4.9969    4.4258 C   0  0  0  0  0  0  0  0  0  0  0  0
    4.8323    4.0405    3.5298 C   0  0  0  0  0  0  0  0  0  0  0  0
    5.4289    2.7765    3.3922 C   0  0  0  0  0  0  0  0  0  0  0  0
    4.9204    1.8208    2.4959 C   0  0  0  0  0  0  0  0  0  0  0  0
    5.5107    0.5560    2.3560 C   0  0  0  0  0  0  0  0  0  0  0  0
    5.0010   -0.4041    1.4638 C   0  0  0  0  0  0  0  0  0  0  0  0
    5.6161   -1.6579    1.3581 C   0  0  0  0  0  0  0  0  0  0  0  0
    5.1421   -2.6469    0.4871 C   0  0  0  0  0  0  0  0  0  0  0  0
    5.7912   -3.8925    0.4197 C   0  0  0  0  0  0  0  0  0  0  0  0
    5.3454   -4.9112   -0.4349 C   0  0  0  0  0  0  0  0  0  0  0  0
    5.9937   -6.1560   -0.5001 C   0  0  0  0  0  0  0  0  0  0  0  0
    5.5327   -7.1566   -1.3569 C   0  0  0  0  0  0  0  0  0  0  0  0
    4.4191   -6.9251   -2.1579 C   0  0  0  0  0  0  0  0  0  0  0  0
    3.7662   -5.6929   -2.1026 C   0  0  0  0  0  0  0  0  0  0  0  0
    4.2198   -4.6769   -1.2447 C   0  0  0  0  0  0  0  0  0  0  0  0
    3.5756   -3.4299   -1.1749 C   0  0  0  0  0  0  0  0  0  0  0  0
    4.0132   -2.3892   -0.3168 C   0  0  0  0  0  0  0  0  0  0  0  0
    2.3451   -0.3171   -2.3897 C   0  0  0  0  0  0  0  0  0  0  0  0
    3.6039   -0.0373   -2.9793 C   0  0  0  0  0  0  0  0  0  0  0  0
    3.7198    0.4052   -4.2988 C   0  0  0  0  0  0  0  0  0  0  0  0
    2.5799    0.5786   -5.0692 C   0  0  0  0  0  0  0  0  0  0  0  0
    1.3295    0.3164   -4.5148 C   0  0  0  0  0  0  0  0  0  0  0  0
    1.2027   -0.1203   -3.1844 C   0  0  0  0  0  0  0  0  0  0  0  0
   -0.0677   -0.3346   -2.6318 C   0  0  0  0  0  0  0  0  0  0  0  0
   -0.2888   -0.6801   -1.2793 C   0  0  0  0  0  0  0  0  0  0  0  0
   -0.9276    5.7240   -5.9795 H   0  0  0  0  0  0  0  0  0  0  0  0
    1.0157    5.2093   -4.5218 H   0  0  0  0  0  0  0  0  0  0  0  0
    0.8037    3.5417   -2.7213 H   0  0  0  0  0  0  0  0  0  0  0  0
   -0.5725    1.9578   -1.4561 H   0  0  0  0  0  0  0  0  0  0  0  0
   -4.4734    3.0260   -4.2763 H   0  0  0  0  0  0  0  0  0  0  0  0
   -3.0824    4.5812   -5.6186 H   0  0  0  0  0  0  0  0  0  0  0  0
   -5.8615    1.6657   -2.8755 H   0  0  0  0  0  0  0  0  0  0  0  0
   -7.3200    0.8161   -1.1794 H   0  0  0  0  0  0  0  0  0  0  0  0
   -8.8326    0.1308    0.6275 H   0  0  0  0  0  0  0  0  0  0  0  0
  -10.3419   -0.4587    2.4958 H   0  0  0  0  0  0  0  0  0  0  0  0
  -10.6592   -1.2193    4.8181 H   0  0  0  0  0  0  0  0  0  0  0  0
   -8.6939   -1.7514    6.2358 H   0  0  0  0  0  0  0  0  0  0  0  0
   -6.4134   -1.5222    5.3307 H   0  0  0  0  0  0  0  0  0  0  0  0
   -4.9041   -0.9495    3.4544 H   0  0  0  0  0  0  0  0  0  0  0  0
   -3.4266   -0.3392    1.6194 H   0  0  0  0  0  0  0  0  0  0  0  0
   -3.7648   -2.4588   -0.2685 H   0  0  0  0  0  0  0  0  0  0  0  0
   -3.9504   -4.1761    1.4569 H   0  0  0  0  0  0  0  0  0  0  0  0
   -2.0169   -4.6798    2.9342 H   0  0  0  0  0  0  0  0  0  0  0  0
    0.1231   -3.5206    2.5753 H   0  0  0  0  0  0  0  0  0  0  0  0
    1.4889   -2.0519    1.2744 H   0  0  0  0  0  0  0  0  0  0  0  0
    2.4147    1.4383    0.2340 H   0  0  0  0  0  0  0  0  0  0  0  0
    2.3186    3.6409    1.2551 H   0  0  0  0  0  0  0  0  0  0  0  0
    2.2267    5.8810    2.2964 H   0  0  0  0  0  0  0  0  0  0  0  0
    3.1420    7.5332    3.8778 H   0  0  0  0  0  0  0  0  0  0  0  0
    5.1347    6.9787    5.2488 H   0  0  0  0  0  0  0  0  0  0  0  0
    6.2101    4.7722    5.0357 H   0  0  0  0  0  0  0  0  0  0  0  0
    6.3029    2.5322    3.9934 H   0  0  0  0  0  0  0  0  0  0  0  0
    6.3854    0.3136    2.9580 H   0  0  0  0  0  0  0  0  0  0  0  0
    6.4887   -1.8718    1.9747 H   0  0  0  0  0  0  0  0  0  0  0  0
    6.6626   -4.0757    1.0467 H   0  0  0  0  0  0  0  0  0  0  0  0
    6.8657   -6.3550    0.1187 H   0  0  0  0  0  0  0  0  0  0  0  0
    6.0433   -8.1151   -1.3979 H   0  0  0  0  0  0  0  0  0  0  0  0
    4.0568   -7.7017   -2.8264 H   0  0  0  0  0  0  0  0  0  0  0  0
    2.8965   -5.5290   -2.7356 H   0  0  0  0  0  0  0  0  0  0  0  0
    2.7053   -3.2696   -1.8103 H   0  0  0  0  0  0  0  0  0  0  0  0
    4.5220   -0.1687   -2.4098 H   0  0  0  0  0  0  0  0  0  0  0  0
    4.7009    0.6085   -4.7191 H   0  0  0  0  0  0  0  0  0  0  0  0
    2.6590    0.9228   -6.0966 H   0  0  0  0  0  0  0  0  0  0  0  0
    0.4436    0.4757   -5.1274 H   0  0  0  0  0  0  0  0  0  0  0  0
   -0.9323   -0.2148   -3.2860 H   0  0  0  0  0  0  0  0  0  0  0  0
  1  2  4  0
  2  3  4  0
  3  4  4  0
  4  5  4  0
  5  6  4  0
  6  7  4  0
  7  8  4  0
  8  9  4  0
  9 10  4  0
  7 11  4  0
 11 12  4  0
 12 13  4  0
 13 14  4  0
 14 15  4  0
 15 16  4  0
 16 17  4  0
 17 18  4  0
 18 19  4  0
 19 20  4  0
 20 21  4  0
 21 22  4  0
 22 23  4  0
 23 24  4  0
 24 25  4  0
 25 26  4  0
 26 27  1  0
 27 28  4  0
 28 29  4  0
 29 30  4  0
 30 31  4  0
 31 32  4  0
 32 33  4  0
 33 34  4  0
 34 35  4  0
 35 36  4  0
 36 37  1  0
 37 38  4  0
 38 39  4  0
 39 40  4  0
 40 41  4  0
 41 42  4  0
 42 43  4  0
 43 44  4  0
 44 45  4  0
 45 46  4  0
 46 47  4  0
 47 48  4  0
 48 49  4  0
 49 50  4  0
 50 51  4  0
 51 52  4  0
 52 53  4  0
 53 54  4  0
 54 55  4  0
 55 56  4  0
 56 57  4  0
 57 58  4  0
 58 59  4  0
 59 60  4  0
 60 61  4  0
 61 62  4  0
 36 63  4  0
 63 64  4  0
 64 65  4  0
 65 66  4  0
 66 67  4  0
 67 68  4  0
 68 69  4  0
 69 70  4  0
 10  1  4  0
 25 12  4  0
 70 27  4  0
  9  4  4  0
 23 14  4  0
 33 28  4  0
 70 35  4  0
 26  6  4  0
 62 37  4  0
 68 63  4  0
 21 16  4  0
 51 38  4  0
 62 53  4  0
 49 40  4  0
 60 55  4  0
 47 42  4  0
  1 71  1  0
  2 72  1  0
  3 73  1  0
  5 74  1  0
  8 75  1  0
 10 76  1  0
 11 77  1  0
 13 78  1  0
 15 79  1  0
 17 80  1  0
 18 81  1  0
 19 82  1  0
 20 83  1  0
 22 84  1  0
 24 85  1  0
 29 86  1  0
 30 87  1  0
 31 88  1  0
 32 89  1  0
 34 90  1  0
 39 91  1  0
 41 92  1  0
 43 93  1  0
 44 94  1  0
 45 95  1  0
 46 96  1  0
 48 97  1  0
 50 98  1  0
 52 99  1  0
 54100  1  0
 56101  1  0
 57102  1  0
 58103  1  0
 59104  1  0
 61105  1  0
 64106  1  0
 65107  1  0
 66108  1  0
 67109  1  0
 69110  1  0
M  END
