
     RDKit          3D

 86 97  0  0  0  0  0  0  0  0999 V2000
   12.0889    0.2967    2.6245 C   0  0  0  0  0  0  0  0  0  0  0  0
   11.3826    0.0157    3.7899 C   0  0  0  0  0  0  0  0  0  0  0  0
   10.0027   -0.1865    3.7366 C   0  0  0  0  0  0  0  0  0  0  0  0
    9.3121   -0.1100    2.5160 C   0  0  0  0  0  0  0  0  0  0  0  0
    7.9240   -0.3118    2.4458 C   0  0  0  0  0  0  0  0  0  0  0  0
    7.2335   -0.2359    1.2246 C   0  0  0  0  0  0  0  0  0  0  0  0
    5.8452   -0.4397    1.1556 C   0  0  0  0  0  0  0  0  0  0  0  0
    5.1539   -0.3665   -0.0646 C   0  0  0  0  0  0  0  0  0  0  0  0
    3.7659   -0.5747   -0.1328 C   0  0  0  0  0  0  0  0  0  0  0  0
    3.0762   -0.5053   -1.3541 C   0  0  0  0  0  0  0  0  0  0  0  0
    1.6147   -0.7371   -1.4095 C   0  0  0  0  0  0  0  0  0  0  0  0
    1.1256   -2.0681   -1.5958 C   0  0  0  0  0  0  0  0  0  0  0  0
    1.9556   -3.2107   -1.7325 C   0  0  0  0  0  0  0  0  0  0  0  0
    1.4298   -4.4923   -1.9121 C   0  0  0  0  0  0  0  0  0  0  0  0
    0.0559   -4.6713   -1.9609 C   0  0  0  0  0  0  0  0  0  0  0  0
   -0.7853   -3.5689   -1.8301 C   0  0  0  0  0  0  0  0  0  0  0  0
   -0.2653   -2.2746   -1.6489 C   0  0  0  0  0  0  0  0  0  0  0  0
   -1.1327   -1.1823   -1.5198 C   0  0  0  0  0  0  0  0  0  0  0  0
   -0.6885    0.1468   -1.3315 C   0  0  0  0  0  0  0  0  0  0  0  0
   -1.5982    1.2506   -1.1983 C   0  0  0  0  0  0  0  0  0  0  0  0
   -3.0583    1.0136   -1.2590 C   0  0  0  0  0  0  0  0  0  0  0  0
   -3.7788    0.6898   -0.0979 C   0  0  0  0  0  0  0  0  0  0  0  0
   -5.1607    0.4404   -0.1420 C   0  0  0  0  0  0  0  0  0  0  0  0
   -5.8799    0.1045    1.0162 C   0  0  0  0  0  0  0  0  0  0  0  0
   -7.2599   -0.1538    0.9719 C   0  0  0  0  0  0  0  0  0  0  0  0
   -7.9767   -0.4963    2.1305 C   0  0  0  0  0  0  0  0  0  0  0  0
   -9.3557   -0.7585    2.0874 C   0  0  0  0  0  0  0  0  0  0  0  0
  -10.0721   -1.1032    3.2453 C   0  0  0  0  0  0  0  0  0  0  0  0
  -11.4421   -1.3622    3.1862 C   0  0  0  0  0  0  0  0  0  0  0  0
  -12.1129   -1.2797    1.9701 C   0  0  0  0  0  0  0  0  0  0  0  0
  -11.4149   -0.9381    0.8108 C   0  0  0  0  0  0  0  0  0  0  0  0
  -10.0359   -0.6748    0.8538 C   0  0  0  0  0  0  0  0  0  0  0  0
   -9.3185   -0.3308   -0.3038 C   0  0  0  0  0  0  0  0  0  0  0  0
   -7.9384   -0.0701   -0.2600 C   0  0  0  0  0  0  0  0  0  0  0  0
   -7.2196    0.2699   -1.4185 C   0  0  0  0  0  0  0  0  0  0  0  0
   -5.8392    0.5239   -1.3754 C   0  0  0  0  0  0  0  0  0  0  0  0
   -5.1205    0.8555   -2.5340 C   0  0  0  0  0  0  0  0  0  0  0  0
   -3.7460    1.0958   -2.4765 C   0  0  0  0  0  0  0  0  0  0  0  0
   -1.1111    2.5805   -1.0057 C   0  0  0  0  0  0  0  0  0  0  0  0
   -1.9436    3.7204   -0.8613 C   0  0  0  0  0  0  0  0  0  0  0  0
   -1.4201    5.0019   -0.6755 C   0  0  0  0  0  0  0  0  0  0  0  0
   -0.0463    5.1827   -0.6282 C   0  0  0  0  0  0  0  0  0  0  0  0
    0.7968    4.0824   -0.7652 C   0  0  0  0  0  0  0  0  0  0  0  0
    0.2798    2.7878   -0.9522 C   0  0  0  0  0  0  0  0  0  0  0  0
    1.1492    1.6966   -1.0857 C   0  0  0  0  0  0  0  0  0  0  0  0
    0.7062    0.3674   -1.2758 C   0  0  0  0  0  0  0  0  0  0  0  0
    3.7994   -0.2187   -2.5189 C   0  0  0  0  0  0  0  0  0  0  0  0
    5.1790   -0.0075   -2.4655 C   0  0  0  0  0  0  0  0  0  0  0  0
    5.8690   -0.0802   -1.2459 C   0  0  0  0  0  0  0  0  0  0  0  0
    7.2568    0.1242   -1.1766 C   0  0  0  0  0  0  0  0  0  0  0  0
    7.9483    0.0492    0.0444 C   0  0  0  0  0  0  0  0  0  0  0  0
    9.3372    0.2513    0.1136 C   0  0  0  0  0  0  0  0  0  0  0  0
   10.0283    0.1751    1.3341 C   0  0  0  0  0  0  0  0  0  0  0  0
   11.4167    0.3759    1.4040 C   0  0  0  0  0  0  0  0  0  0  0  0
   13.1635    0.4544    2.6636 H   0  0  0  0  0  0  0  0  0  0  0  0
   11.9045   -0.0466    4.7412 H   0  0  0  0  0  0  0  0  0  0  0  0
    9.4681   -0.4050    4.6583 H   0  0  0  0  0  0  0  0  0  0  0  0
    7.3714   -0.5328    3.3573 H   0  0  0  0  0  0  0  0  0  0  0  0
    5.2927   -0.6607    2.0673 H   0  0  0  0  0  0  0  0  0  0  0  0
    3.2067   -0.7984    0.7748 H   0  0  0  0  0  0  0  0  0  0  0  0
    3.0393   -3.1127   -1.6998 H   0  0  0  0  0  0  0  0  0  0  0  0
    2.0975   -5.3436   -2.0129 H   0  0  0  0  0  0  0  0  0  0  0  0
   -0.3635   -5.6639   -2.1000 H   0  0  0  0  0  0  0  0  0  0  0  0
   -1.8614   -3.7279   -1.8705 H   0  0  0  0  0  0  0  0  0  0  0  0
   -2.2028   -1.3842   -1.5677 H   0  0  0  0  0  0  0  0  0  0  0  0
   -3.2469    0.6258    0.8504 H   0  0  0  0  0  0  0  0  0  0  0  0
   -5.3556    0.0395    1.9682 H   0  0  0  0  0  0  0  0  0  0  0  0
   -7.4516   -0.5619    3.0818 H   0  0  0  0  0  0  0  0  0  0  0  0
   -9.5654   -1.1727    4.2053 H   0  0  0  0  0  0  0  0  0  0  0  0
  -11.9838   -1.6280    4.0901 H   0  0  0  0  0  0  0  0  0  0  0  0
  -13.1798   -1.4811    1.9219 H   0  0  0  0  0  0  0  0  0  0  0  0
  -11.9577   -0.8793   -0.1300 H   0  0  0  0  0  0  0  0  0  0  0  0
   -9.8437   -0.2667   -1.2551 H   0  0  0  0  0  0  0  0  0  0  0  0
   -7.7426    0.3343   -2.3708 H   0  0  0  0  0  0  0  0  0  0  0  0
   -5.6251    0.9256   -3.4951 H   0  0  0  0  0  0  0  0  0  0  0  0
   -3.2087    1.3455   -3.3893 H   0  0  0  0  0  0  0  0  0  0  0  0
   -3.0271    3.6199   -0.8919 H   0  0  0  0  0  0  0  0  0  0  0  0
   -2.0891    5.8515   -0.5690 H   0  0  0  0  0  0  0  0  0  0  0  0
    0.3720    6.1750   -0.4851 H   0  0  0  0  0  0  0  0  0  0  0  0
    1.8725    4.2434   -0.7244 H   0  0  0  0  0  0  0  0  0  0  0  0
    2.2192    1.8986   -1.0369 H   0  0  0  0  0  0  0  0  0  0  0  0
    3.2873   -0.1607   -3.4774 H   0  0  0  0  0  0  0  0  0  0  0  0
    5.7110    0.2134   -3.3882 H   0  0  0  0  0  0  0  0  0  0  0  0
    7.8087    0.3439   -2.0888 H   0  0  0  0  0  0  0  0  0  0  0  0
    9.8909    0.4705   -0.7976 H   0  0  0  0  0  0  0  0  0  0  0  0
   11.9870    0.5963    0.5043 H   0  0  0  0  0  0  0  0  0  0  0  0
  1  2  4  0
  2  3  4  0
  3  4  4  0
  4  5  4  0
  5  6  4  0
  6  7  4  0
  7  8  4  0
  8  9  4  0
  9 10  4  0
 10 11  1  0
 11 12  4  0
 12 13  4  0
 13 14  4  0
 14 15  4  0
 15 16  4  0
 16 17  4  0
 17 18  4  0
 18 19  4  0
 19 20  4  0
 20 21  1  0
 21 22  4  0
 22 23  4  0
 23 24  4  0
 24 25  4  0
 25 26  4  0
 26 27  4  0
 27 28  4  0
 28 29  4  0
 29 30  4  0
 30 31  4  0
 31 32  4  0
 32 33  4  0
 33 34  4  0
 34 35  4  0
 35 36  4  0
 36 37  4  0
 37 38  4  0
 20 39  4  0
 39 40  4  0
 40 41  4  0
 41 42  4  0
 42 43  4  0
 43 44  4  0
 44 45  4  0
 45 46  4  0
 10 47  4  0
 47 48  4  0
 48 49  4  0
 49 50  4  0
 50 51  4  0
 51 52  4  0
 52 53  4  0
 53 54  4  0
 54  1  4  0
 53  4  4  0
 51  6  4  0
 49  8  4  0
 46 11  4  0
 17 12  4  0
 46 19  4  0
 38 21  4  0
 44 39  4  0
 36 23  4  0
 34 25  4  0
 32 27  4  0
  1 55  1  0
  2 56  1  0
  3 57  1  0
  5 58  1  0
  7 59  1  0
  9 60  1  0
 13 61  1  0
 14 62  1  0
 15 63  1  0
 16 64  1  0
 18 65  1  0
 22 66  1  0
 24 67  1  0
 26 68  1  0
 28 69  1  0
 29 70  1  0
 30 71  1  0
 31 72  1  0
 33 73  1  0
 35 74  1  0
 37 75  1  0
 38 76  1  0
 40 77  1  0
 41 78  1  0
 42 79  1  0
 43 80  1  0
 45 81  1  0
 47 82  1  0
 48 83  1  0
 50 84  1  0
 52 85  1  0
 54 86  1  0
M  END
