
     RDKit          3D

 86 97  0  0  0  0  0  0  0  0999 V2000
   -4.9144    6.2729   -2.0706 C   0  0  0  0  0  0  0  0  0  0  0  0
   -3.8747    6.2377   -1.1465 C   0  0  0  0  0  0  0  0  0  0  0  0
   -3.3100    5.0152   -0.7792 C   0  0  0  0  0  0  0  0  0  0  0  0
   -3.7787    3.8119   -1.3320 C   0  0  0  0  0  0  0  0  0  0  0  0
   -3.2210    2.5739   -0.9732 C   0  0  0  0  0  0  0  0  0  0  0  0
   -3.6903    1.3710   -1.5274 C   0  0  0  0  0  0  0  0  0  0  0  0
   -3.1317    0.1325   -1.1690 C   0  0  0  0  0  0  0  0  0  0  0  0
   -3.5828   -1.0909   -1.7179 C   0  0  0  0  0  0  0  0  0  0  0  0
   -4.6402   -1.0392   -2.6566 C   0  0  0  0  0  0  0  0  0  0  0  0
   -5.2024    0.1992   -3.0123 C   0  0  0  0  0  0  0  0  0  0  0  0
   -4.7401    1.4049   -2.4612 C   0  0  0  0  0  0  0  0  0  0  0  0
   -5.3004    2.6428   -2.8214 C   0  0  0  0  0  0  0  0  0  0  0  0
   -4.8330    3.8471   -2.2690 C   0  0  0  0  0  0  0  0  0  0  0  0
   -5.3908    5.0854   -2.6286 C   0  0  0  0  0  0  0  0  0  0  0  0
   -5.1231   -2.2255   -3.2304 C   0  0  0  0  0  0  0  0  0  0  0  0
   -4.5775   -3.4608   -2.8917 C   0  0  0  0  0  0  0  0  0  0  0  0
   -3.5373   -3.5264   -1.9716 C   0  0  0  0  0  0  0  0  0  0  0  0
   -3.0259   -2.3583   -1.3746 C   0  0  0  0  0  0  0  0  0  0  0  0
   -1.9097   -2.4967   -0.3994 C   0  0  0  0  0  0  0  0  0  0  0  0
   -2.2107   -2.6904    0.9852 C   0  0  0  0  0  0  0  0  0  0  0  0
   -3.5260   -2.7583    1.5121 C   0  0  0  0  0  0  0  0  0  0  0  0
   -3.7697   -2.9437    2.8747 C   0  0  0  0  0  0  0  0  0  0  0  0
   -2.7045   -3.0661    3.7537 C   0  0  0  0  0  0  0  0  0  0  0  0
   -1.4011   -3.0019    3.2664 C   0  0  0  0  0  0  0  0  0  0  0  0
   -1.1454   -2.8161    1.8959 C   0  0  0  0  0  0  0  0  0  0  0  0
    0.1746   -2.7516    1.4309 C   0  0  0  0  0  0  0  0  0  0  0  0
    0.5123   -2.5609    0.0714 C   0  0  0  0  0  0  0  0  0  0  0  0
    1.8740   -2.4921   -0.3813 C   0  0  0  0  0  0  0  0  0  0  0  0
    2.9890   -2.6408    0.5935 C   0  0  0  0  0  0  0  0  0  0  0  0
    3.4844   -3.9350    0.8431 C   0  0  0  0  0  0  0  0  0  0  0  0
    4.5193   -4.1416    1.7478 C   0  0  0  0  0  0  0  0  0  0  0  0
    5.0760   -3.0566    2.4188 C   0  0  0  0  0  0  0  0  0  0  0  0
    4.6105   -1.7518    2.1954 C   0  0  0  0  0  0  0  0  0  0  0  0
    5.1858   -0.6699    2.8831 C   0  0  0  0  0  0  0  0  0  0  0  0
    4.7453    0.6478    2.6849 C   0  0  0  0  0  0  0  0  0  0  0  0
    5.3212    1.7272    3.3763 C   0  0  0  0  0  0  0  0  0  0  0  0
    4.8798    3.0454    3.1745 C   0  0  0  0  0  0  0  0  0  0  0  0
    5.4543    4.1256    3.8646 C   0  0  0  0  0  0  0  0  0  0  0  0
    5.0041    5.4295    3.6516 C   0  0  0  0  0  0  0  0  0  0  0  0
    3.9746    5.6700    2.7470 C   0  0  0  0  0  0  0  0  0  0  0  0
    3.3937    4.6070    2.0539 C   0  0  0  0  0  0  0  0  0  0  0  0
    3.8360    3.2895    2.2575 C   0  0  0  0  0  0  0  0  0  0  0  0
    3.2619    2.2090    1.5683 C   0  0  0  0  0  0  0  0  0  0  0  0
    3.7041    0.8910    1.7728 C   0  0  0  0  0  0  0  0  0  0  0  0
    3.1284   -0.1912    1.0854 C   0  0  0  0  0  0  0  0  0  0  0  0
    3.5590   -1.5257    1.2758 C   0  0  0  0  0  0  0  0  0  0  0  0
    2.1754   -2.2830   -1.7631 C   0  0  0  0  0  0  0  0  0  0  0  0
    3.4910   -2.1935   -2.2858 C   0  0  0  0  0  0  0  0  0  0  0  0
    3.7358   -1.9838   -3.6446 C   0  0  0  0  0  0  0  0  0  0  0  0
    2.6713   -1.8565   -4.5236 C   0  0  0  0  0  0  0  0  0  0  0  0
    1.3676   -1.9386   -4.0398 C   0  0  0  0  0  0  0  0  0  0  0  0
    1.1104   -2.1498   -2.6732 C   0  0  0  0  0  0  0  0  0  0  0  0
   -0.2100   -2.2262   -2.2104 C   0  0  0  0  0  0  0  0  0  0  0  0
   -0.5481   -2.4295   -0.8528 C   0  0  0  0  0  0  0  0  0  0  0  0
   -5.3554    7.2237   -2.3582 H   0  0  0  0  0  0  0  0  0  0  0  0
   -3.5016    7.1605   -0.7104 H   0  0  0  0  0  0  0  0  0  0  0  0
   -2.4980    5.0079   -0.0554 H   0  0  0  0  0  0  0  0  0  0  0  0
   -2.4068    2.5453   -0.2507 H   0  0  0  0  0  0  0  0  0  0  0  0
   -2.3214    0.1241   -0.4414 H   0  0  0  0  0  0  0  0  0  0  0  0
   -6.0160    0.2266   -3.7354 H   0  0  0  0  0  0  0  0  0  0  0  0
   -6.1134    2.6699   -3.5446 H   0  0  0  0  0  0  0  0  0  0  0  0
   -6.2039    5.1333   -3.3494 H   0  0  0  0  0  0  0  0  0  0  0  0
   -5.9361   -2.1951   -3.9533 H   0  0  0  0  0  0  0  0  0  0  0  0
   -4.9628   -4.3706   -3.3446 H   0  0  0  0  0  0  0  0  0  0  0  0
   -3.1161   -4.4965   -1.7126 H   0  0  0  0  0  0  0  0  0  0  0  0
   -4.3894   -2.6619    0.8561 H   0  0  0  0  0  0  0  0  0  0  0  0
   -4.7914   -2.9887    3.2421 H   0  0  0  0  0  0  0  0  0  0  0  0
   -2.8839   -3.2087    4.8156 H   0  0  0  0  0  0  0  0  0  0  0  0
   -0.5767   -3.0962    3.9710 H   0  0  0  0  0  0  0  0  0  0  0  0
    0.9712   -2.8481    2.1685 H   0  0  0  0  0  0  0  0  0  0  0  0
    3.0535   -4.7894    0.3235 H   0  0  0  0  0  0  0  0  0  0  0  0
    4.8915   -5.1462    1.9306 H   0  0  0  0  0  0  0  0  0  0  0  0
    5.8844   -3.2392    3.1242 H   0  0  0  0  0  0  0  0  0  0  0  0
    5.9941   -0.8562    3.5888 H   0  0  0  0  0  0  0  0  0  0  0  0
    6.1270    1.5388    4.0832 H   0  0  0  0  0  0  0  0  0  0  0  0
    6.2600    3.9577    4.5757 H   0  0  0  0  0  0  0  0  0  0  0  0
    5.4578    6.2557    4.1924 H   0  0  0  0  0  0  0  0  0  0  0  0
    3.6222    6.6843    2.5794 H   0  0  0  0  0  0  0  0  0  0  0  0
    2.5900    4.8146    1.3509 H   0  0  0  0  0  0  0  0  0  0  0  0
    2.4572    2.3971    0.8598 H   0  0  0  0  0  0  0  0  0  0  0  0
    2.3231    0.0146    0.3816 H   0  0  0  0  0  0  0  0  0  0  0  0
    4.3536   -2.2834   -1.6279 H   0  0  0  0  0  0  0  0  0  0  0  0
    4.7578   -1.9186   -4.0082 H   0  0  0  0  0  0  0  0  0  0  0  0
    2.8515   -1.6916   -5.5822 H   0  0  0  0  0  0  0  0  0  0  0  0
    0.5441   -1.8332   -4.7437 H   0  0  0  0  0  0  0  0  0  0  0  0
   -1.0064   -2.1144   -2.9460 H   0  0  0  0  0  0  0  0  0  0  0  0
  1  2  4  0
  2  3  4  0
  3  4  4  0
  4  5  4  0
  5  6  4  0
  6  7  4  0
  7  8  4  0
  8  9  4  0
  9 10  4  0
 10 11  4  0
 11 12  4  0
 12 13  4  0
 13 14  4  0
  9 15  4  0
 15 16  4  0
 16 17  4  0
 17 18  4  0
 18 19  1  0
 19 20  4  0
 20 21  4  0
 21 22  4  0
 22 23  4  0
 23 24  4  0
 24 25  4  0
 25 26  4  0
 26 27  4  0
 27 28  4  0
 28 29  1  0
 29 30  4  0
 30 31  4  0
 31 32  4  0
 32 33  4  0
 33 34  4  0
 34 35  4  0
 35 36  4  0
 36 37  4  0
 37 38  4  0
 38 39  4  0
 39 40  4  0
 40 41  4  0
 41 42  4  0
 42 43  4  0
 43 44  4  0
 44 45  4  0
 45 46  4  0
 28 47  4  0
 47 48  4  0
 48 49  4  0
 49 50  4  0
 50 51  4  0
 51 52  4  0
 52 53  4  0
 53 54  4  0
 14  1  4  0
 54 19  4  0
 13  4  4  0
 25 20  4  0
 54 27  4  0
 11  6  4  0
 46 29  4  0
 52 47  4  0
 18  8  4  0
 46 33  4  0
 44 35  4  0
 42 37  4  0
  1 55  1  0
  2 56  1  0
  3 57  1  0
  5 58  1  0
  7 59  1  0
 10 60  1  0
 12 61  1  0
 14 62  1  0
 15 63  1  0
 16 64  1  0
 17 65  1  0
 21 66  1  0
 22 67  1  0
 23 68  1  0
 24 69  1  0
 26 70  1  0
 30 71  1  0
 31 72  1  0
 32 73  1  0
 34 74  1  0
 36 75  1  0
 38 76  1  0
 39 77  1  0
 40 78  1  0
 41 79  1  0
 43 80  1  0
 45 81  1  0
 48 82  1  0
 49 83  1  0
 50 84  1  0
 51 85  1  0
 53 86  1  0
M  END
