
     RDKit          3D

 98111  0  0  0  0  0  0  0  0999 V2000
   15.0367   -0.5600   -1.0161 C   0  0  0  0  0  0  0  0  0  0  0  0
   13.9859    0.2684   -1.4130 C   0  0  0  0  0  0  0  0  0  0  0  0
   12.6729    0.0210   -0.9799 C   0  0  0  0  0  0  0  0  0  0  0  0
   11.6050    0.8457   -1.3701 C   0  0  0  0  0  0  0  0  0  0  0  0
   10.2918    0.5982   -0.9360 C   0  0  0  0  0  0  0  0  0  0  0  0
    9.2237    1.4239   -1.3254 C   0  0  0  0  0  0  0  0  0  0  0  0
    7.9105    1.1783   -0.8906 C   0  0  0  0  0  0  0  0  0  0  0  0
    6.8430    2.0052   -1.2789 C   0  0  0  0  0  0  0  0  0  0  0  0
    5.5310    1.7604   -0.8423 C   0  0  0  0  0  0  0  0  0  0  0  0
    4.4656    2.5876   -1.2288 C   0  0  0  0  0  0  0  0  0  0  0  0
    3.1666    2.3325   -0.7840 C   0  0  0  0  0  0  0  0  0  0  0  0
    2.9022    1.2439    0.0568 C   0  0  0  0  0  0  0  0  0  0  0  0
    1.5271    0.9729    0.5337 C   0  0  0  0  0  0  0  0  0  0  0  0
    1.0823    1.5673    1.7559 C   0  0  0  0  0  0  0  0  0  0  0  0
    1.8798    2.4182    2.5648 C   0  0  0  0  0  0  0  0  0  0  0  0
    1.4005    2.9770    3.7518 C   0  0  0  0  0  0  0  0  0  0  0  0
    0.1068    2.7020    4.1671 C   0  0  0  0  0  0  0  0  0  0  0  0
   -0.7001    1.8691    3.3950 C   0  0  0  0  0  0  0  0  0  0  0  0
   -0.2267    1.3009    2.1982 C   0  0  0  0  0  0  0  0  0  0  0  0
   -1.0574    0.4652    1.4393 C   0  0  0  0  0  0  0  0  0  0  0  0
   -0.6536   -0.1420    0.2276 C   0  0  0  0  0  0  0  0  0  0  0  0
   -1.5217   -0.9968   -0.5334 C   0  0  0  0  0  0  0  0  0  0  0  0
   -2.8951   -1.2734   -0.0542 C   0  0  0  0  0  0  0  0  0  0  0  0
   -3.1527   -2.3649    0.7848 C   0  0  0  0  0  0  0  0  0  0  0  0
   -4.4506   -2.6296    1.2278 C   0  0  0  0  0  0  0  0  0  0  0  0
   -5.5217   -1.8092    0.8419 C   0  0  0  0  0  0  0  0  0  0  0  0
   -6.8328   -2.0651    1.2754 C   0  0  0  0  0  0  0  0  0  0  0  0
   -7.9063   -1.2452    0.8879 C   0  0  0  0  0  0  0  0  0  0  0  0
   -9.2184   -1.5022    1.3200 C   0  0  0  0  0  0  0  0  0  0  0  0
  -10.2927   -0.6833    0.9326 C   0  0  0  0  0  0  0  0  0  0  0  0
  -11.6046   -0.9418    1.3648 C   0  0  0  0  0  0  0  0  0  0  0  0
  -12.6788   -0.1233    0.9777 C   0  0  0  0  0  0  0  0  0  0  0  0
  -13.9907   -0.3811    1.4096 C   0  0  0  0  0  0  0  0  0  0  0  0
  -15.0471    0.4417    1.0161 C   0  0  0  0  0  0  0  0  0  0  0  0
  -14.8061    1.5322    0.1863 C   0  0  0  0  0  0  0  0  0  0  0  0
  -13.5083    1.8014   -0.2512 C   0  0  0  0  0  0  0  0  0  0  0  0
  -12.4344    0.9826    0.1361 C   0  0  0  0  0  0  0  0  0  0  0  0
  -11.1225    1.2398   -0.2958 C   0  0  0  0  0  0  0  0  0  0  0  0
  -10.0488    0.4203    0.0922 C   0  0  0  0  0  0  0  0  0  0  0  0
   -8.7366    0.6771   -0.3400 C   0  0  0  0  0  0  0  0  0  0  0  0
   -7.6623   -0.1418    0.0474 C   0  0  0  0  0  0  0  0  0  0  0  0
   -6.3505    0.1151   -0.3861 C   0  0  0  0  0  0  0  0  0  0  0  0
   -5.2772   -0.7051   -0.0006 C   0  0  0  0  0  0  0  0  0  0  0  0
   -3.9662   -0.4502   -0.4383 C   0  0  0  0  0  0  0  0  0  0  0  0
   -1.0769   -1.5905   -1.7561 C   0  0  0  0  0  0  0  0  0  0  0  0
   -1.8738   -2.4421   -2.5648 C   0  0  0  0  0  0  0  0  0  0  0  0
   -1.3945   -2.9998   -3.7524 C   0  0  0  0  0  0  0  0  0  0  0  0
   -0.1015   -2.7230   -4.1687 C   0  0  0  0  0  0  0  0  0  0  0  0
    0.7052   -1.8900   -3.3964 C   0  0  0  0  0  0  0  0  0  0  0  0
    0.2316   -1.3230   -2.1990 C   0  0  0  0  0  0  0  0  0  0  0  0
    1.0621   -0.4875   -1.4398 C   0  0  0  0  0  0  0  0  0  0  0  0
    0.6583    0.1193   -0.2278 C   0  0  0  0  0  0  0  0  0  0  0  0
    3.9683    0.4152    0.4428 C   0  0  0  0  0  0  0  0  0  0  0  0
    5.2799    0.6603    0.0034 C   0  0  0  0  0  0  0  0  0  0  0  0
    6.3469   -0.1666    0.3902 C   0  0  0  0  0  0  0  0  0  0  0  0
    7.6594    0.0794   -0.0462 C   0  0  0  0  0  0  0  0  0  0  0  0
    8.7271   -0.7468    0.3424 C   0  0  0  0  0  0  0  0  0  0  0  0
   10.0404   -0.5008   -0.0917 C   0  0  0  0  0  0  0  0  0  0  0  0
   11.1080   -1.3268    0.2988 C   0  0  0  0  0  0  0  0  0  0  0  0
   12.4212   -1.0800   -0.1341 C   0  0  0  0  0  0  0  0  0  0  0  0
   13.4892   -1.9046    0.2566 C   0  0  0  0  0  0  0  0  0  0  0  0
   14.7885   -1.6456   -0.1820 C   0  0  0  0  0  0  0  0  0  0  0  0
   16.0478   -0.3566   -1.3589 H   0  0  0  0  0  0  0  0  0  0  0  0
   14.1998    1.1120   -2.0654 H   0  0  0  0  0  0  0  0  0  0  0  0
   11.8004    1.6949   -2.0224 H   0  0  0  0  0  0  0  0  0  0  0  0
    9.4186    2.2732   -1.9779 H   0  0  0  0  0  0  0  0  0  0  0  0
    7.0361    2.8547   -1.9313 H   0  0  0  0  0  0  0  0  0  0  0  0
    4.6389    3.4414   -1.8802 H   0  0  0  0  0  0  0  0  0  0  0  0
    2.3567    2.9894   -1.0953 H   0  0  0  0  0  0  0  0  0  0  0  0
    2.9008    2.6587    2.2734 H   0  0  0  0  0  0  0  0  0  0  0  0
    2.0414    3.6244    4.3445 H   0  0  0  0  0  0  0  0  0  0  0  0
   -0.2769    3.1326    5.0879 H   0  0  0  0  0  0  0  0  0  0  0  0
   -1.7130    1.6641    3.7367 H   0  0  0  0  0  0  0  0  0  0  0  0
   -2.0640    0.2833    1.8157 H   0  0  0  0  0  0  0  0  0  0  0  0
   -2.3384   -3.0173    1.0947 H   0  0  0  0  0  0  0  0  0  0  0  0
   -4.6184   -3.4862    1.8771 H   0  0  0  0  0  0  0  0  0  0  0  0
   -7.0214   -2.9185    1.9243 H   0  0  0  0  0  0  0  0  0  0  0  0
   -9.4077   -2.3552    1.9694 H   0  0  0  0  0  0  0  0  0  0  0  0
  -11.7945   -1.7950    2.0136 H   0  0  0  0  0  0  0  0  0  0  0  0
  -14.1993   -1.2287    2.0586 H   0  0  0  0  0  0  0  0  0  0  0  0
  -16.0568    0.2302    1.3580 H   0  0  0  0  0  0  0  0  0  0  0  0
  -15.6272    2.1744   -0.1215 H   0  0  0  0  0  0  0  0  0  0  0  0
  -13.3404    2.6587   -0.8994 H   0  0  0  0  0  0  0  0  0  0  0  0
  -10.9351    2.0929   -0.9453 H   0  0  0  0  0  0  0  0  0  0  0  0
   -8.5481    1.5293   -0.9908 H   0  0  0  0  0  0  0  0  0  0  0  0
   -6.1608    0.9682   -1.0353 H   0  0  0  0  0  0  0  0  0  0  0  0
   -3.7689    0.3985   -1.0917 H   0  0  0  0  0  0  0  0  0  0  0  0
   -2.8944   -2.6838   -2.2731 H   0  0  0  0  0  0  0  0  0  0  0  0
   -2.0350   -3.6475   -4.3450 H   0  0  0  0  0  0  0  0  0  0  0  0
    0.2811   -3.1523   -5.0905 H   0  0  0  0  0  0  0  0  0  0  0  0
    1.7177   -1.6838   -3.7385 H   0  0  0  0  0  0  0  0  0  0  0  0
    2.0685   -0.3052   -1.8164 H   0  0  0  0  0  0  0  0  0  0  0  0
    3.7664   -0.4314    1.0977 H   0  0  0  0  0  0  0  0  0  0  0  0
    6.1521   -1.0157    1.0432 H   0  0  0  0  0  0  0  0  0  0  0  0
    8.5323   -1.5958    0.9955 H   0  0  0  0  0  0  0  0  0  0  0  0
   10.9142   -2.1762    0.9513 H   0  0  0  0  0  0  0  0  0  0  0  0
   13.3151   -2.7579    0.9082 H   0  0  0  0  0  0  0  0  0  0  0  0
   15.6055   -2.2920    0.1281 H   0  0  0  0  0  0  0  0  0  0  0  0
  1  2  4  0
  2  3  4  0
  3  4  4  0
  4  5  4  0
  5  6  4  0
  6  7  4  0
  7  8  4  0
  8  9  4  0
  9 10  4  0
 10 11  4  0
 11 12  4  0
 12 13  1  0
 13 14  4  0
 14 15  4  0
 15 16  4  0
 16 17  4  0
 17 18  4  0
 18 19  4  0
 19 20  4  0
 20 21  4  0
 21 22  4  0
 22 23  1  0
 23 24  4  0
 24 25  4  0
 25 26  4  0
 26 27  4  0
 27 28  4  0
 28 29  4  0
 29 30  4  0
 30 31  4  0
 31 32  4  0
 32 33  4  0
 33 34  4  0
 34 35  4  0
 35 36  4  0
 36 37  4  0
 37 38  4  0
 38 39  4  0
 39 40  4  0
 40 41  4  0
 41 42  4  0
 42 43  4  0
 43 44  4  0
 22 45  4  0
 45 46  4  0
 46 47  4  0
 47 48  4  0
 48 49  4  0
 49 50  4  0
 50 51  4  0
 51 52  4  0
 12 53  4  0
 53 54  4  0
 54 55  4  0
 55 56  4  0
 56 57  4  0
 57 58  4  0
 58 59  4  0
 59 60  4  0
 60 61  4  0
 61 62  4  0
 62  1  4  0
 60  3  4  0
 58  5  4  0
 56  7  4  0
 54  9  4  0
 52 13  4  0
 19 14  4  0
 52 21  4  0
 44 23  4  0
 50 45  4  0
 43 26  4  0
 41 28  4  0
 39 30  4  0
 37 32  4  0
  1 63  1  0
  2 64  1  0
  4 65  1  0
  6 66  1  0
  8 67  1  0
 10 68  1  0
 11 69  1  0
 15 70  1  0
 16 71  1  0
 17 72  1  0
 18 73  1  0
 20 74  1  0
 24 75  1  0
 25 76  1  0
 27 77  1  0
 29 78  1  0
 31 79  1  0
 33 80  1  0
 34 81  1  0
 35 82  1  0
 36 83  1  0
 38 84  1  0
 40 85  1  0
 42 86  1  0
 44 87  1  0
 46 88  1  0
 47 89  1  0
 48 90  1  0
 49 91  1  0
 51 92  1  0
 53 93  1  0
 55 94  1  0
 57 95  1  0
 59 96  1  0
 61 97  1  0
 62 98  1  0
M  END
