
     RDKit          3D

 98111  0  0  0  0  0  0  0  0999 V2000
    6.1091    3.2171    6.6583 C   0  0  0  0  0  0  0  0  0  0  0  0
    6.6040    3.1428    5.3554 C   0  0  0  0  0  0  0  0  0  0  0  0
    5.8650    2.5123    4.3404 C   0  0  0  0  0  0  0  0  0  0  0  0
    6.3490    2.4295    3.0243 C   0  0  0  0  0  0  0  0  0  0  0  0
    5.6086    1.7997    2.0093 C   0  0  0  0  0  0  0  0  0  0  0  0
    6.0920    1.7170    0.6927 C   0  0  0  0  0  0  0  0  0  0  0  0
    5.3505    1.0897   -0.3233 C   0  0  0  0  0  0  0  0  0  0  0  0
    5.8316    1.0064   -1.6390 C   0  0  0  0  0  0  0  0  0  0  0  0
    5.0926    0.3814   -2.6577 C   0  0  0  0  0  0  0  0  0  0  0  0
    5.6067    0.3167   -3.9618 C   0  0  0  0  0  0  0  0  0  0  0  0
    4.8913   -0.2979   -4.9851 C   0  0  0  0  0  0  0  0  0  0  0  0
    3.6471   -0.8563   -4.7167 C   0  0  0  0  0  0  0  0  0  0  0  0
    3.0971   -0.8099   -3.4211 C   0  0  0  0  0  0  0  0  0  0  0  0
    1.7579   -1.4233   -3.2078 C   0  0  0  0  0  0  0  0  0  0  0  0
    1.6705   -2.8007   -2.8332 C   0  0  0  0  0  0  0  0  0  0  0  0
    2.7935   -3.6422   -2.6273 C   0  0  0  0  0  0  0  0  0  0  0  0
    2.6578   -4.9827   -2.2596 C   0  0  0  0  0  0  0  0  0  0  0  0
    1.3932   -5.5238   -2.0861 C   0  0  0  0  0  0  0  0  0  0  0  0
    0.2709   -4.7222   -2.2805 C   0  0  0  0  0  0  0  0  0  0  0  0
    0.3972   -3.3710   -2.6505 C   0  0  0  0  0  0  0  0  0  0  0  0
   -0.7467   -2.5848   -2.8394 C   0  0  0  0  0  0  0  0  0  0  0  0
   -0.7015   -1.2207   -3.2082 C   0  0  0  0  0  0  0  0  0  0  0  0
   -1.8886   -0.4341   -3.3954 C   0  0  0  0  0  0  0  0  0  0  0  0
   -3.2279   -1.0591   -3.2212 C   0  0  0  0  0  0  0  0  0  0  0  0
   -3.9119   -1.0622   -1.9699 C   0  0  0  0  0  0  0  0  0  0  0  0
   -3.3914   -0.4720   -0.7938 C   0  0  0  0  0  0  0  0  0  0  0  0
   -4.0877   -0.4854    0.4272 C   0  0  0  0  0  0  0  0  0  0  0  0
   -3.5561    0.1118    1.5829 C   0  0  0  0  0  0  0  0  0  0  0  0
   -4.2548    0.1009    2.8020 C   0  0  0  0  0  0  0  0  0  0  0  0
   -3.7251    0.7017    3.9565 C   0  0  0  0  0  0  0  0  0  0  0  0
   -4.4239    0.6907    5.1750 C   0  0  0  0  0  0  0  0  0  0  0  0
   -3.8943    1.2912    6.3293 C   0  0  0  0  0  0  0  0  0  0  0  0
   -4.6010    1.2721    7.5326 C   0  0  0  0  0  0  0  0  0  0  0  0
   -5.8453    0.6530    7.5975 C   0  0  0  0  0  0  0  0  0  0  0  0
   -6.3849    0.0520    6.4592 C   0  0  0  0  0  0  0  0  0  0  0  0
   -5.6857    0.0628    5.2407 C   0  0  0  0  0  0  0  0  0  0  0  0
   -6.2147   -0.5371    4.0858 C   0  0  0  0  0  0  0  0  0  0  0  0
   -5.5145   -0.5253    2.8674 C   0  0  0  0  0  0  0  0  0  0  0  0
   -6.0439   -1.1234    1.7115 C   0  0  0  0  0  0  0  0  0  0  0  0
   -5.3453   -1.1085    0.4921 C   0  0  0  0  0  0  0  0  0  0  0  0
   -5.8746   -1.7001   -0.6652 C   0  0  0  0  0  0  0  0  0  0  0  0
   -5.1800   -1.6842   -1.8865 C   0  0  0  0  0  0  0  0  0  0  0  0
   -5.7418   -2.2833   -3.0244 C   0  0  0  0  0  0  0  0  0  0  0  0
   -5.0720   -2.2750   -4.2443 C   0  0  0  0  0  0  0  0  0  0  0  0
   -3.8259   -1.6673   -4.3418 C   0  0  0  0  0  0  0  0  0  0  0  0
   -1.8020    0.9464   -3.7573 C   0  0  0  0  0  0  0  0  0  0  0  0
   -2.9259    1.7899   -3.9505 C   0  0  0  0  0  0  0  0  0  0  0  0
   -2.7913    3.1345   -4.3030 C   0  0  0  0  0  0  0  0  0  0  0  0
   -1.5273    3.6776   -4.4736 C   0  0  0  0  0  0  0  0  0  0  0  0
   -0.4040    2.8746   -4.2888 C   0  0  0  0  0  0  0  0  0  0  0  0
   -0.5289    1.5194   -3.9327 C   0  0  0  0  0  0  0  0  0  0  0  0
    0.6157    0.7319   -3.7500 C   0  0  0  0  0  0  0  0  0  0  0  0
    0.5710   -0.6348   -3.3903 C   0  0  0  0  0  0  0  0  0  0  0  0
    3.8279   -0.1836   -2.3684 C   0  0  0  0  0  0  0  0  0  0  0  0
    3.3577   -0.0926   -1.0367 C   0  0  0  0  0  0  0  0  0  0  0  0
    4.0980    0.5319   -0.0172 C   0  0  0  0  0  0  0  0  0  0  0  0
    3.6149    0.6113    1.3001 C   0  0  0  0  0  0  0  0  0  0  0  0
    4.3541    1.2390    2.3173 C   0  0  0  0  0  0  0  0  0  0  0  0
    3.8694    1.3204    3.6339 C   0  0  0  0  0  0  0  0  0  0  0  0
    4.6083    1.9499    4.6495 C   0  0  0  0  0  0  0  0  0  0  0  0
    4.1241    2.0326    5.9656 C   0  0  0  0  0  0  0  0  0  0  0  0
    4.8702    2.6622    6.9632 C   0  0  0  0  0  0  0  0  0  0  0  0
    6.6916    3.7082    7.4334 H   0  0  0  0  0  0  0  0  0  0  0  0
    7.5744    3.5827    5.1366 H   0  0  0  0  0  0  0  0  0  0  0  0
    7.3185    2.8633    2.7864 H   0  0  0  0  0  0  0  0  0  0  0  0
    7.0622    2.1488    0.4540 H   0  0  0  0  0  0  0  0  0  0  0  0
    6.8034    1.4375   -1.8745 H   0  0  0  0  0  0  0  0  0  0  0  0
    6.5789    0.7482   -4.1922 H   0  0  0  0  0  0  0  0  0  0  0  0
    5.3026   -0.3412   -5.9901 H   0  0  0  0  0  0  0  0  0  0  0  0
    3.0938   -1.3348   -5.5234 H   0  0  0  0  0  0  0  0  0  0  0  0
    3.8030   -3.2544   -2.7495 H   0  0  0  0  0  0  0  0  0  0  0  0
    3.5420   -5.5959   -2.1087 H   0  0  0  0  0  0  0  0  0  0  0  0
    1.2774   -6.5651   -1.7988 H   0  0  0  0  0  0  0  0  0  0  0  0
   -0.7142   -5.1631   -2.1388 H   0  0  0  0  0  0  0  0  0  0  0  0
   -1.7143   -3.0631   -2.6868 H   0  0  0  0  0  0  0  0  0  0  0  0
   -2.4178    0.0156   -0.8272 H   0  0  0  0  0  0  0  0  0  0  0  0
   -2.5818    0.5954    1.5304 H   0  0  0  0  0  0  0  0  0  0  0  0
   -2.7522    1.1871    3.9053 H   0  0  0  0  0  0  0  0  0  0  0  0
   -2.9231    1.7801    6.2981 H   0  0  0  0  0  0  0  0  0  0  0  0
   -4.1789    1.7407    8.4178 H   0  0  0  0  0  0  0  0  0  0  0  0
   -6.3975    0.6370    8.5335 H   0  0  0  0  0  0  0  0  0  0  0  0
   -7.3591   -0.4266    6.5302 H   0  0  0  0  0  0  0  0  0  0  0  0
   -7.1884   -1.0208    4.1367 H   0  0  0  0  0  0  0  0  0  0  0  0
   -7.0179   -1.6068    1.7611 H   0  0  0  0  0  0  0  0  0  0  0  0
   -6.8502   -2.1809   -0.6141 H   0  0  0  0  0  0  0  0  0  0  0  0
   -6.7160   -2.7649   -2.9683 H   0  0  0  0  0  0  0  0  0  0  0  0
   -5.5204   -2.7419   -5.1171 H   0  0  0  0  0  0  0  0  0  0  0  0
   -3.3087   -1.6658   -5.3000 H   0  0  0  0  0  0  0  0  0  0  0  0
   -3.9353    1.4028   -3.8225 H   0  0  0  0  0  0  0  0  0  0  0  0
   -3.6759    3.7502   -4.4410 H   0  0  0  0  0  0  0  0  0  0  0  0
   -1.4123    4.7227   -4.7472 H   0  0  0  0  0  0  0  0  0  0  0  0
    0.5806    3.3181   -4.4251 H   0  0  0  0  0  0  0  0  0  0  0  0
    1.5831    1.2133   -3.8920 H   0  0  0  0  0  0  0  0  0  0  0  0
    2.3882   -0.5202   -0.7833 H   0  0  0  0  0  0  0  0  0  0  0  0
    2.6455    0.1761    1.5368 H   0  0  0  0  0  0  0  0  0  0  0  0
    2.8998    0.8869    3.8723 H   0  0  0  0  0  0  0  0  0  0  0  0
    3.1578    1.6051    6.2240 H   0  0  0  0  0  0  0  0  0  0  0  0
    4.4827    2.7188    7.9770 H   0  0  0  0  0  0  0  0  0  0  0  0
  1  2  4  0
  2  3  4  0
  3  4  4  0
  4  5  4  0
  5  6  4  0
  6  7  4  0
  7  8  4  0
  8  9  4  0
  9 10  4  0
 10 11  4  0
 11 12  4  0
 12 13  4  0
 13 14  1  0
 14 15  4  0
 15 16  4  0
 16 17  4  0
 17 18  4  0
 18 19  4  0
 19 20  4  0
 20 21  4  0
 21 22  4  0
 22 23  4  0
 23 24  1  0
 24 25  4  0
 25 26  4  0
 26 27  4  0
 27 28  4  0
 28 29  4  0
 29 30  4  0
 30 31  4  0
 31 32  4  0
 32 33  4  0
 33 34  4  0
 34 35  4  0
 35 36  4  0
 36 37  4  0
 37 38  4  0
 38 39  4  0
 39 40  4  0
 40 41  4  0
 41 42  4  0
 42 43  4  0
 43 44  4  0
 44 45  4  0
 23 46  4  0
 46 47  4  0
 47 48  4  0
 48 49  4  0
 49 50  4  0
 50 51  4  0
 51 52  4  0
 52 53  4  0
 13 54  4  0
 54 55  4  0
 55 56  4  0
 56 57  4  0
 57 58  4  0
 58 59  4  0
 59 60  4  0
 60 61  4  0
 61 62  4  0
 62  1  4  0
 60  3  4  0
 58  5  4  0
 56  7  4  0
 54  9  4  0
 53 14  4  0
 20 15  4  0
 53 22  4  0
 45 24  4  0
 51 46  4  0
 42 25  4  0
 40 27  4  0
 38 29  4  0
 36 31  4  0
  1 63  1  0
  2 64  1  0
  4 65  1  0
  6 66  1  0
  8 67  1  0
 10 68  1  0
 11 69  1  0
 12 70  1  0
 16 71  1  0
 17 72  1  0
 18 73  1  0
 19 74  1  0
 21 75  1  0
 26 76  1  0
 28 77  1  0
 30 78  1  0
 32 79  1  0
 33 80  1  0
 34 81  1  0
 35 82  1  0
 37 83  1  0
 39 84  1  0
 41 85  1  0
 43 86  1  0
 44 87  1  0
 45 88  1  0
 47 89  1  0
 48 90  1  0
 49 91  1  0
 50 92  1  0
 52 93  1  0
 55 94  1  0
 57 95  1  0
 59 96  1  0
 61 97  1  0
 62 98  1  0
M  END
