
     RDKit          3D

 98111  0  0  0  0  0  0  0  0999 V2000
  -15.0403   -0.1564    0.9217 C   0  0  0  0  0  0  0  0  0  0  0  0
  -14.7711   -1.4870    0.6172 C   0  0  0  0  0  0  0  0  0  0  0  0
  -13.4623   -1.8886    0.3455 C   0  0  0  0  0  0  0  0  0  0  0  0
  -12.4057   -0.9634    0.3750 C   0  0  0  0  0  0  0  0  0  0  0  0
  -11.0833   -1.3518    0.1039 C   0  0  0  0  0  0  0  0  0  0  0  0
  -10.0267   -0.4258    0.1336 C   0  0  0  0  0  0  0  0  0  0  0  0
   -8.7039   -0.8141   -0.1380 C   0  0  0  0  0  0  0  0  0  0  0  0
   -7.6466    0.1110   -0.1082 C   0  0  0  0  0  0  0  0  0  0  0  0
   -6.3241   -0.2780   -0.3805 C   0  0  0  0  0  0  0  0  0  0  0  0
   -5.2670    0.6465   -0.3495 C   0  0  0  0  0  0  0  0  0  0  0  0
   -3.9445    0.2568   -0.6228 C   0  0  0  0  0  0  0  0  0  0  0  0
   -2.8883    1.1819   -0.5887 C   0  0  0  0  0  0  0  0  0  0  0  0
   -1.5004    0.7545   -0.8794 C   0  0  0  0  0  0  0  0  0  0  0  0
   -1.0164    0.8175   -2.2240 C   0  0  0  0  0  0  0  0  0  0  0  0
   -1.7850    1.2680   -3.3287 C   0  0  0  0  0  0  0  0  0  0  0  0
   -1.2660    1.3130   -4.6251 C   0  0  0  0  0  0  0  0  0  0  0  0
    0.0395    0.9082   -4.8577 C   0  0  0  0  0  0  0  0  0  0  0  0
    0.8187    0.4595   -3.7938 C   0  0  0  0  0  0  0  0  0  0  0  0
    0.3049    0.4100   -2.4851 C   0  0  0  0  0  0  0  0  0  0  0  0
    1.1091   -0.0465   -1.4327 C   0  0  0  0  0  0  0  0  0  0  0  0
    0.6681   -0.1234   -0.0914 C   0  0  0  0  0  0  0  0  0  0  0  0
    1.5132   -0.5934    0.9711 C   0  0  0  0  0  0  0  0  0  0  0  0
    2.9000   -1.0212    0.6766 C   0  0  0  0  0  0  0  0  0  0  0  0
    3.9541   -0.0931    0.6919 C   0  0  0  0  0  0  0  0  0  0  0  0
    5.2731   -0.4802    0.3994 C   0  0  0  0  0  0  0  0  0  0  0  0
    6.3274    0.4478    0.4060 C   0  0  0  0  0  0  0  0  0  0  0  0
    7.6453    0.0619    0.1079 C   0  0  0  0  0  0  0  0  0  0  0  0
    8.6997    0.9907    0.1105 C   0  0  0  0  0  0  0  0  0  0  0  0
   10.0173    0.6060   -0.1895 C   0  0  0  0  0  0  0  0  0  0  0  0
   11.0703    1.5362   -0.1879 C   0  0  0  0  0  0  0  0  0  0  0  0
   12.3877    1.1521   -0.4882 C   0  0  0  0  0  0  0  0  0  0  0  0
   13.4410    2.0817   -0.4871 C   0  0  0  0  0  0  0  0  0  0  0  0
   14.7447    1.6843   -0.7876 C   0  0  0  0  0  0  0  0  0  0  0  0
   15.0123    0.3535   -1.0930 C   0  0  0  0  0  0  0  0  0  0  0  0
   13.9765   -0.5819   -1.0984 C   0  0  0  0  0  0  0  0  0  0  0  0
   12.6590   -0.1974   -0.7980 C   0  0  0  0  0  0  0  0  0  0  0  0
   11.6053   -1.1266   -0.7994 C   0  0  0  0  0  0  0  0  0  0  0  0
   10.2877   -0.7411   -0.4989 C   0  0  0  0  0  0  0  0  0  0  0  0
    9.2335   -1.6700   -0.5009 C   0  0  0  0  0  0  0  0  0  0  0  0
    7.9157   -1.2851   -0.2016 C   0  0  0  0  0  0  0  0  0  0  0  0
    6.8620   -2.2145   -0.2059 C   0  0  0  0  0  0  0  0  0  0  0  0
    5.5443   -1.8289    0.0892 C   0  0  0  0  0  0  0  0  0  0  0  0
    4.4921   -2.7571    0.0799 C   0  0  0  0  0  0  0  0  0  0  0  0
    3.1854   -2.3577    0.3691 C   0  0  0  0  0  0  0  0  0  0  0  0
    1.0320   -0.6543    2.3159 C   0  0  0  0  0  0  0  0  0  0  0  0
    1.8045   -1.1017    3.4189 C   0  0  0  0  0  0  0  0  0  0  0  0
    1.2899   -1.1438    4.7168 C   0  0  0  0  0  0  0  0  0  0  0  0
   -0.0150   -0.7394    4.9524 C   0  0  0  0  0  0  0  0  0  0  0  0
   -0.7981   -0.2941    3.8896 C   0  0  0  0  0  0  0  0  0  0  0  0
   -0.2893   -0.2470    2.5787 C   0  0  0  0  0  0  0  0  0  0  0  0
   -1.0965    0.2070    1.5264 C   0  0  0  0  0  0  0  0  0  0  0  0
   -0.6566    0.2840    0.1844 C   0  0  0  0  0  0  0  0  0  0  0  0
   -3.1742    2.5167   -0.2751 C   0  0  0  0  0  0  0  0  0  0  0  0
   -4.4840    2.9183   -0.0028 C   0  0  0  0  0  0  0  0  0  0  0  0
   -5.5395    1.9943   -0.0370 C   0  0  0  0  0  0  0  0  0  0  0  0
   -6.8619    2.3831    0.2333 C   0  0  0  0  0  0  0  0  0  0  0  0
   -7.9189    1.4577    0.2013 C   0  0  0  0  0  0  0  0  0  0  0  0
   -9.2419    1.8462    0.4719 C   0  0  0  0  0  0  0  0  0  0  0  0
  -10.2991    0.9212    0.4420 C   0  0  0  0  0  0  0  0  0  0  0  0
  -11.6217    1.3108    0.7133 C   0  0  0  0  0  0  0  0  0  0  0  0
  -12.6787    0.3860    0.6838 C   0  0  0  0  0  0  0  0  0  0  0  0
  -14.0011    0.7747    0.9549 C   0  0  0  0  0  0  0  0  0  0  0  0
  -16.0587    0.1586    1.1335 H   0  0  0  0  0  0  0  0  0  0  0  0
  -15.5788   -2.2138    0.5907 H   0  0  0  0  0  0  0  0  0  0  0  0
  -13.2718   -2.9331    0.1095 H   0  0  0  0  0  0  0  0  0  0  0  0
  -10.8738   -2.3931   -0.1341 H   0  0  0  0  0  0  0  0  0  0  0  0
   -8.4933   -1.8551   -0.3770 H   0  0  0  0  0  0  0  0  0  0  0  0
   -6.1127   -1.3189   -0.6198 H   0  0  0  0  0  0  0  0  0  0  0  0
   -3.7257   -0.7819   -0.8670 H   0  0  0  0  0  0  0  0  0  0  0  0
   -2.8141    1.5941   -3.1883 H   0  0  0  0  0  0  0  0  0  0  0  0
   -1.8855    1.6644   -5.4460 H   0  0  0  0  0  0  0  0  0  0  0  0
    0.4530    0.9396   -5.8620 H   0  0  0  0  0  0  0  0  0  0  0  0
    1.8417    0.1456   -3.9943 H   0  0  0  0  0  0  0  0  0  0  0  0
    2.1257   -0.3545   -1.6770 H   0  0  0  0  0  0  0  0  0  0  0  0
    3.7355    0.9467    0.9315 H   0  0  0  0  0  0  0  0  0  0  0  0
    6.1181    1.4891    0.6452 H   0  0  0  0  0  0  0  0  0  0  0  0
    8.4911    2.0322    0.3497 H   0  0  0  0  0  0  0  0  0  0  0  0
   10.8618    2.5776    0.0510 H   0  0  0  0  0  0  0  0  0  0  0  0
   13.2520    3.1265   -0.2511 H   0  0  0  0  0  0  0  0  0  0  0  0
   15.5498    2.4145   -0.7829 H   0  0  0  0  0  0  0  0  0  0  0  0
   16.0268    0.0419   -1.3273 H   0  0  0  0  0  0  0  0  0  0  0  0
   14.2057   -1.6174   -1.3397 H   0  0  0  0  0  0  0  0  0  0  0  0
   11.8158   -2.1674   -1.0387 H   0  0  0  0  0  0  0  0  0  0  0  0
    9.4425   -2.7111   -0.7407 H   0  0  0  0  0  0  0  0  0  0  0  0
    7.0707   -3.2558   -0.4450 H   0  0  0  0  0  0  0  0  0  0  0  0
    4.6806   -3.8021   -0.1561 H   0  0  0  0  0  0  0  0  0  0  0  0
    2.3852   -3.0952    0.3520 H   0  0  0  0  0  0  0  0  0  0  0  0
    2.8334   -1.4272    3.2761 H   0  0  0  0  0  0  0  0  0  0  0  0
    1.9126   -1.4924    5.5363 H   0  0  0  0  0  0  0  0  0  0  0  0
   -0.4249   -0.7683    5.9582 H   0  0  0  0  0  0  0  0  0  0  0  0
   -1.8202    0.0202    4.0930 H   0  0  0  0  0  0  0  0  0  0  0  0
   -2.1132    0.5141    1.7711 H   0  0  0  0  0  0  0  0  0  0  0  0
   -2.3722    3.2518   -0.2429 H   0  0  0  0  0  0  0  0  0  0  0  0
   -4.6727    3.9624    0.2371 H   0  0  0  0  0  0  0  0  0  0  0  0
   -7.0724    3.4239    0.4733 H   0  0  0  0  0  0  0  0  0  0  0  0
   -9.4531    2.8873    0.7099 H   0  0  0  0  0  0  0  0  0  0  0  0
  -11.8336    2.3516    0.9518 H   0  0  0  0  0  0  0  0  0  0  0  0
  -14.2313    1.8103    1.1949 H   0  0  0  0  0  0  0  0  0  0  0  0
  1  2  4  0
  2  3  4  0
  3  4  4  0
  4  5  4  0
  5  6  4  0
  6  7  4  0
  7  8  4  0
  8  9  4  0
  9 10  4  0
 10 11  4  0
 11 12  4  0
 12 13  1  0
 13 14  4  0
 14 15  4  0
 15 16  4  0
 16 17  4  0
 17 18  4  0
 18 19  4  0
 19 20  4  0
 20 21  4  0
 21 22  4  0
 22 23  1  0
 23 24  4  0
 24 25  4  0
 25 26  4  0
 26 27  4  0
 27 28  4  0
 28 29  4  0
 29 30  4  0
 30 31  4  0
 31 32  4  0
 32 33  4  0
 33 34  4  0
 34 35  4  0
 35 36  4  0
 36 37  4  0
 37 38  4  0
 38 39  4  0
 39 40  4  0
 40 41  4  0
 41 42  4  0
 42 43  4  0
 43 44  4  0
 22 45  4  0
 45 46  4  0
 46 47  4  0
 47 48  4  0
 48 49  4  0
 49 50  4  0
 50 51  4  0
 51 52  4  0
 12 53  4  0
 53 54  4  0
 54 55  4  0
 55 56  4  0
 56 57  4  0
 57 58  4  0
 58 59  4  0
 59 60  4  0
 60 61  4  0
 61 62  4  0
 62  1  4  0
 61  4  4  0
 59  6  4  0
 57  8  4  0
 55 10  4  0
 52 13  4  0
 19 14  4  0
 52 21  4  0
 44 23  4  0
 50 45  4  0
 42 25  4  0
 40 27  4  0
 38 29  4  0
 36 31  4  0
  1 63  1  0
  2 64  1  0
  3 65  1  0
  5 66  1  0
  7 67  1  0
  9 68  1  0
 11 69  1  0
 15 70  1  0
 16 71  1  0
 17 72  1  0
 18 73  1  0
 20 74  1  0
 24 75  1  0
 26 76  1  0
 28 77  1  0
 30 78  1  0
 32 79  1  0
 33 80  1  0
 34 81  1  0
 35 82  1  0
 37 83  1  0
 39 84  1  0
 41 85  1  0
 43 86  1  0
 44 87  1  0
 46 88  1  0
 47 89  1  0
 48 90  1  0
 49 91  1  0
 51 92  1  0
 53 93  1  0
 54 94  1  0
 56 95  1  0
 58 96  1  0
 60 97  1  0
 62 98  1  0
M  END
