98

 C           -7.279184           -7.672101           -2.893518
 C           -6.558388           -6.972767           -3.911987
 C           -5.839499           -5.848994           -3.605691
 C           -5.796669           -5.356513           -2.257155
 C           -5.047998           -4.201050           -1.910659
 C           -5.007961           -3.728500           -0.608017
 C           -5.751183           -4.426554            0.408794
 C           -6.484544           -5.556693            0.084452
 C           -6.520292           -6.047523           -1.246697
 C           -7.264663           -7.223565           -1.600440
 C           -5.724730           -3.928813            1.780956
 C           -5.025984           -2.827079            2.117540
 C           -4.254694           -2.080134            1.128277
 C           -3.549043           -0.946098            1.497441
 C           -2.793910           -0.213020            0.545162
 C           -2.081966            0.978534            0.905897
 C           -1.363169            1.672864           -0.036493
 C           -0.671837            2.933138            0.323462
 C           -1.405541            4.024969            0.679972
 C           -0.775270            5.272498            1.061377
 C           -1.517322            6.378362            1.448008
 C           -0.880552            7.582692            1.850168
 C           -1.629661            8.716083            2.267503
 C           -0.997957            9.880819            2.674833
 C           -1.746772           11.048069            3.107147
 C           -1.108626           12.178491            3.504004
 C            0.335239           12.246365            3.508273
 C            1.078990           11.181886            3.112629
 C            0.446204            9.949972            2.674665
 C            1.187066            8.853161            2.262194
 C            0.551260            7.652808            1.843958
 C            1.299570            6.518536            1.428967
 C            0.666904            5.344716            1.047454
 C            1.410140            4.167963            0.643101
 C            0.782449            3.007336            0.300647
 C            1.583580            1.819734           -0.078668
 C            2.373061            1.879389           -1.276640
 C            3.161312            0.822478           -1.639262
 C            3.224531           -0.359170           -0.825087
 C            4.060910           -1.454667           -1.164647
 C            4.129373           -2.587305           -0.367668
 C            3.322755           -2.649688            0.823403
 C            2.496412           -1.589934            1.162107
 C            2.433513           -0.423936            0.354657
 C            1.604566            0.693099            0.706298
 C            3.389751           -3.838092            1.669000
 C            4.191547           -4.876866            1.363884
 C            5.030299           -4.869074            0.169025
 C            5.843568           -5.951213           -0.127536
 C            6.656078           -5.957717           -1.291171
 C            7.493424           -7.076175           -1.623538
 C            8.263173           -7.054060           -2.755115
 C            8.249262           -5.914720           -3.619692
 C            7.461681           -4.833491           -3.329501
 C            6.636293           -4.827596           -2.154077
 C            5.800784           -3.724474           -1.836515
 C            5.002056           -3.723847           -0.703406
 C           -1.302401            1.202578           -1.391006
 C           -1.975624            0.070661           -1.759299
 C           -2.752436           -0.666802           -0.801752
 C           -3.481787           -1.828586           -1.166621
 C           -4.232653           -2.533676           -0.237904
 H           -7.835876           -8.565448           -3.171789
 H           -6.595526           -7.355313           -4.930764
 H           -5.287808           -5.308716           -4.373451
 H           -4.496207           -3.686571           -2.699759
 H           -7.047490           -6.085848            0.853045
 H           -7.812122           -7.746769           -0.817930
 H           -6.296595           -4.487509            2.522431
 H           -5.010866           -2.454607            3.142223
 H           -3.566707           -0.599963            2.530469
 H           -2.128223            1.320668            1.939058
 H           -2.496054            3.986883            0.689562
 H           -2.606161            6.333994            1.452371
 H           -2.717550            8.654189            2.265170
 H           -2.834099           10.981517            3.101187
 H           -1.660082           13.059624            3.828898
 H            0.799446           13.174623            3.838283
 H            2.167682           11.218278            3.112588
 H            2.275756            8.898145            2.257106
 H            2.387388            6.583281            1.420238
 H            2.499048            4.237839            0.633798
 H            2.325667            2.782273           -1.884490
 H            3.758302            0.856156           -2.549835
 H            4.660200           -1.386030           -2.074552
 H            1.880435           -1.638502            2.060134
 H            0.995958            0.628667            1.608391
 H            2.761500           -3.848234            2.560358
 H            4.240521           -5.762594            1.998104
 H            5.868308           -6.817478            0.533312
 H            7.497962           -7.937727           -0.957496
 H            8.897400           -7.898722           -3.019426
 H            8.876815           -5.929870           -4.509445
 H            7.444096           -3.961006           -3.980657
 H            5.797798           -2.866999           -2.512054
 H           -0.709166            1.768217           -2.109335
 H           -1.935374           -0.294377           -2.785126
 H           -3.442013           -2.159280           -2.206511

