90

 C           -3.676654           -6.955562           -3.638681
 C           -4.039869           -7.421787           -2.343742
 C           -3.880725           -6.612479           -1.245816
 C           -3.348103           -5.291553           -1.375159
 C           -2.987879           -4.830315           -2.668041
 C           -3.164650           -5.691988           -3.797310
 C           -2.451031           -3.516659           -2.834264
 C           -2.269214           -2.684509           -1.752630
 C           -1.722048           -1.339471           -1.902192
 C           -1.542342           -0.524985           -0.841472
 C           -1.880950           -0.946876            0.513429
 C           -2.422267           -2.258235            0.701216
 C           -2.767588           -2.699269            2.003122
 C           -2.561624           -1.837496            3.107108
 C           -2.036861           -0.572158            2.917787
 C           -1.698737           -0.115275            1.623179
 C           -1.187323            1.269383            1.483630
 C           -2.051066            2.289029            1.219536
 C           -1.592857            3.658758            1.099430
 C           -2.466835            4.701736            0.833231
 C           -1.998677            6.038499            0.722765
 C           -2.883753            7.115951            0.448891
 C           -2.415675            8.416332            0.342758
 C           -3.304566            9.529632            0.059259
 C           -2.825672           10.795453           -0.044414
 C           -1.416418           11.066460            0.127594
 C           -0.546192           10.059919            0.395891
 C           -1.006158            8.687286            0.514708
 C           -0.133517            7.644541            0.784013
 C           -0.600866            6.307002            0.892648
 C            0.284237            5.229811            1.165746
 C           -0.184237            3.928819            1.268249
 C            0.702326            2.815700            1.542799
 C            0.234373            1.540510            1.646385
 C            1.170521            0.428134            1.935961
 C            1.297350           -0.008775            3.274425
 C            2.185599           -1.014342            3.609612
 C            2.981926           -1.627242            2.612770
 C            3.924040           -2.672390            2.933499
 C            4.676918           -3.256781            1.963077
 C            4.564041           -2.859106            0.579273
 C            3.661640           -1.835915            0.243152
 C            3.529908           -1.405401           -1.129586
 C            4.285190           -2.003877           -2.112737
 C            5.201949           -3.053352           -1.797293
 C            5.975094           -3.677532           -2.827663
 C            6.852149           -4.689602           -2.527078
 C            7.003060           -5.127876           -1.181194
 C            6.273626           -4.542522           -0.175741
 C            5.349315           -3.487388           -0.454211
 C            2.586335           -0.333665           -1.432435
 C            1.842600            0.249443           -0.469426
 C            1.938639           -0.162608            0.926902
 C            2.856700           -1.206856            1.264991
 C           -3.325971           -4.019703            2.167925
 C           -3.514308           -4.837498            1.097542
 C           -3.162441           -4.421722           -0.240040
 C           -2.624913           -3.137127           -0.427554
 H           -3.811385           -7.616556           -4.493129
 H           -4.443065           -8.427742           -2.241300
 H           -4.158335           -6.969197           -0.252707
 H           -2.882309           -5.323766           -4.782532
 H           -2.185713           -3.187803           -3.838409
 H           -1.462408           -1.020087           -2.911608
 H           -1.133483            0.480112           -0.961894
 H           -2.821963           -2.179834            4.107736
 H           -1.880635            0.091292            3.768462
 H           -3.118243            2.099110            1.093436
 H           -3.531615            4.506795            0.706459
 H           -3.944909            6.902737            0.322674
 H           -4.363804            9.310159           -0.068007
 H           -3.482946           11.636575           -0.259578
 H           -1.081564           12.098346            0.033393
 H            0.518409           10.248724            0.527797
 H            0.930306            7.839885            0.916923
 H            1.345147            5.442974            1.295996
 H            1.764759            3.032762            1.665682
 H            0.683397            0.461392            4.042713
 H            2.278912           -1.342017            4.644159
 H            4.013369           -2.978826            3.975482
 H            5.388904           -4.046496            2.211636
 H            4.194628           -1.688685           -3.151579
 H            5.849943           -3.333565           -3.853290
 H            7.440961           -5.170249           -3.306468
 H            7.703390           -5.933042           -0.966020
 H            6.387980           -4.878303            0.856166
 H            2.507085           -0.023583           -2.474510
 H            1.140825            1.052037           -0.704648
 H           -3.592290           -4.340834            3.174647
 H           -3.939193           -5.834919            1.227696

