62

 C           -5.600243            4.638700           -0.816025
 C           -4.673775            4.645772            0.196406
 C           -3.596893            3.703532            0.198444
 C           -2.611312            3.691029            1.236449
 C           -1.576437            2.792912            1.205139
 C           -1.469687            1.847430            0.135238
 C           -0.310911            0.924469            0.118917
 C            0.953262            1.426248            0.025501
 C            2.116002            0.562011            0.002690
 C            3.403583            1.066208           -0.105260
 C            4.529259            0.199708           -0.125937
 C            5.853756            0.702011           -0.240030
 C            6.944123           -0.153617           -0.257905
 C            8.305244            0.341065           -0.370922
 C            9.359415           -0.513802           -0.384449
 C            9.152386           -1.940921           -0.288364
 C            7.899614           -2.452122           -0.182414
 C            6.737414           -1.581174           -0.161011
 C            5.450424           -2.083059           -0.050254
 C            4.325034           -1.215915           -0.029807
 C            3.001916           -1.720079            0.080987
 C            1.910955           -0.864323            0.094193
 C            0.553307           -1.359511            0.189571
 C           -0.516972           -0.515479            0.195132
 C           -1.886536           -1.074164            0.278259
 C           -2.672552           -0.834341            1.449409
 C           -3.922170           -1.385324            1.566722
 C           -4.460376           -2.203406            0.522261
 C           -5.753522           -2.806362            0.630101
 C           -6.244047           -3.585261           -0.387788
 C           -5.473264           -3.799933           -1.567884
 C           -4.229210           -3.235736           -1.697186
 C           -3.689112           -2.425228           -0.647953
 C           -2.386826           -1.844532           -0.747645
 C           -2.414294            1.827999           -0.865892
 C           -3.497980            2.760787           -0.857502
 C           -4.482776            2.772873           -1.896590
 C           -5.503794            3.689211           -1.875370
 H           -6.421091            5.353598           -0.828400
 H           -4.739419            5.365797            1.010400
 H           -2.700852            4.411165            2.048741
 H           -0.820369            2.779778            1.989189
 H            1.123779            2.501856           -0.041749
 H            3.567459            2.141047           -0.177866
 H            6.000279            1.779161           -0.314138
 H            8.446608            1.418488           -0.443164
 H           10.383692           -0.153696           -0.466999
 H           10.030545           -2.584435           -0.303723
 H            7.727624           -3.525101           -0.109741
 H            5.284580           -3.157556            0.022433
 H            2.855146           -2.797334            0.154291
 H            0.414207           -2.439540            0.259309
 H           -2.255355           -0.206771            2.236659
 H           -4.527756           -1.209577            2.455152
 H           -6.335136           -2.635750            1.534672
 H           -7.225230           -4.050615           -0.313018
 H           -5.891347           -4.418719           -2.360082
 H           -3.632674           -3.394335           -2.593918
 H           -1.799111           -2.026006           -1.646458
 H           -2.351119            1.102783           -1.677271
 H           -4.402787            2.040870           -2.698907
 H           -6.254679            3.707317           -2.663539

