74

 C           -4.031392            3.823768            3.354475
 C           -2.968051            2.945934            3.764695
 C           -2.174243            2.340920            2.837655
 C           -2.383595            2.567722            1.425699
 C           -1.576589            1.957558            0.455000
 C           -1.799470            2.172881           -0.912585
 C           -2.867207            3.038963           -1.319428
 C           -3.668508            3.658654           -0.348812
 C           -3.446840            3.436557            1.017375
 C           -4.264428            4.060055            2.033283
 C           -3.098684            3.257145           -2.728872
 C           -2.316696            2.649533           -3.663530
 C           -1.245767            1.780299           -3.265616
 C           -0.989540            1.546705           -1.942818
 C            0.138740            0.666190           -1.553661
 C            1.333545            1.208505           -1.188174
 C            2.465112            0.376539           -0.831215
 C            3.692528            0.920906           -0.484949
 C            4.796449            0.087989           -0.159708
 C            6.065265            0.632737            0.176294
 C            7.136968           -0.189735            0.486761
 C            8.440869            0.348973            0.832989
 C            9.475434           -0.473716            1.141159
 C            9.305892           -1.908975            1.125008
 C            8.108645           -2.460653            0.801459
 C            6.967308           -1.625361            0.470680
 C            5.734216           -2.168167            0.144753
 C            4.628307           -1.335493           -0.176135
 C            3.362108           -1.880665           -0.518967
 C            2.296354           -1.057717           -0.850077
 C            1.005756           -1.594857           -1.232074
 C           -0.028769           -0.780656           -1.580809
 C           -1.321521           -1.366048           -2.012972
 C           -1.539459           -1.621640           -3.338553
 C           -2.773011           -2.208796           -3.779145
 C           -3.748012           -2.526257           -2.882859
 C           -3.560942           -2.278181           -1.471757
 C           -4.555737           -2.607763           -0.539143
 C           -4.372953           -2.357094            0.827932
 C           -5.384934           -2.688466            1.805361
 C           -5.184993           -2.429015            3.127636
 C           -3.964482           -1.814190            3.577030
 C           -2.985880           -1.488815            2.687010
 C           -3.152622           -1.755298            1.276391
 C           -2.154181           -1.437500            0.344714
 C           -2.334601           -1.685918           -1.023373
 H           -4.639850            4.288085            4.128563
 H           -2.820686            2.781127            4.830498
 H           -1.367257            1.672300            3.132787
 H           -0.763236            1.302343            0.770532
 H           -4.477097            4.318397           -0.661998
 H           -5.068998            4.718405            1.709254
 H           -3.916316            3.916355           -3.016710
 H           -2.481056            2.804664           -4.728966
 H           -0.646400            1.311653           -4.045138
 H            1.471465            2.290733           -1.161460
 H            3.826596            2.002280           -0.462069
 H            6.184559            1.715938            0.184577
 H            8.555498            1.432218            0.834845
 H           10.456113           -0.081069            1.405435
 H           10.167166           -2.525277            1.377834
 H            7.967633           -3.540516            0.779056
 H            5.597663           -3.249240            0.128956
 H            3.240905           -2.963811           -0.522090
 H            0.890706           -2.679984           -1.239836
 H           -0.785046           -1.385937           -4.087953
 H           -2.901128           -2.391003           -4.845197
 H           -4.689147           -2.970218           -3.203571
 H           -5.484461           -3.061880           -0.882850
 H           -6.306654           -3.147648            1.451660
 H           -5.938555           -2.676332            3.873302
 H           -3.850407           -1.616423            4.641246
 H           -2.059674           -1.016780            3.011014
 H           -1.223021           -0.985834            0.690451

