94

 C            9.854863            4.361533            2.647332
 C            9.808593            3.060602            3.286101
 C            8.781173            2.210291            3.052057
 C            7.695654            2.571350            2.148913
 C            6.653215            1.709995            1.898365
 C            5.594046            2.087442            1.007588
 N            4.567895            1.225346            0.771244
 C            3.578307            1.632647           -0.068577
 C            2.469240            0.763504           -0.338875
 C            1.430313            1.176808           -1.139077
 C            1.471620            2.494526           -1.765742
 C            2.534676            3.339595           -1.547107
 C            3.614089            2.947508           -0.689960
 N            4.645384            3.805087           -0.463035
 C            5.636410            3.396628            0.374676
 C            6.740869            4.269918            0.648842
 C            7.741534            3.880421            1.507763
 C            8.871044            4.752838            1.803429
 C            0.366745            2.895630           -2.625682
 C           -0.684459            2.070660           -2.839688
 C           -0.737881            0.766764           -2.216330
 C            0.259102            0.336359           -1.396581
 C            0.152546           -1.003093           -0.767603
 C            0.313055           -2.119767           -1.531858
 C            0.136772           -3.449264           -0.982485
 C            0.304420           -4.588949           -1.754344
 C            0.093364           -5.882129           -1.205148
 C            0.263455           -7.058208           -1.984428
 C            0.040470           -8.314248           -1.442208
 C            0.209964           -9.527240           -2.223125
 C           -0.020952          -10.747539           -1.675423
 C           -0.442065          -10.868977           -0.298200
 C           -0.611025           -9.765184            0.473562
 C           -0.374613           -8.436051           -0.062727
 C           -0.536252           -7.296312            0.709555
 C           -0.305656           -6.003510            0.166386
 C           -0.459910           -4.828762            0.950530
 C           -0.240907           -3.572594            0.405556
 C           -0.368767           -2.362874            1.193595
 C           -0.169576           -1.130063            0.648365
 C           -0.240207            0.074322            1.511693
 C            0.763290            0.321201            2.396507
 C            0.743198            1.494100            3.242592
 C           -0.280138            2.377196            3.174692
 C           -1.389558            2.170202            2.254155
 C           -2.422699            3.075487            2.182355
 C           -3.507817            2.873287            1.268505
 N           -4.506559            3.793315            1.187289
 C           -5.505221            3.567067            0.291759
 C           -6.574472            4.514703            0.164295
 C           -7.582914            4.310145           -0.747708
 C           -8.676356            5.262116           -0.897292
 C           -9.668566            5.052243           -1.794227
 C           -9.667804            3.872209           -2.636815
 C           -8.675375            2.955672           -2.544250
 C           -7.582396            3.122781           -1.594484
 C           -6.574317            2.193248           -1.488954
 C           -5.506502            2.380052           -0.549300
 N           -4.512430            1.454886           -0.460911
 C           -3.513291            1.681722            0.434105
 C           -2.434141            0.743582            0.550718
 C           -1.385673            0.980888            1.408098
 H           10.704830            5.005376            2.871761
 H           10.626719            2.797846            3.956069
 H            8.730933            1.230756            3.527808
 H            6.597129            0.722621            2.362113
 H            2.480711           -0.229400            0.120930
 H            2.587889            4.328236           -2.009211
 H            6.751773            5.243919            0.153816
 H            8.888828            5.728815            1.317976
 H            0.420368            3.884077           -3.082150
 H           -1.521789            2.360427           -3.475221
 H           -1.615206            0.148932           -2.417944
 H            0.572545           -2.041145           -2.589172
 H            0.600076           -4.504999           -2.800091
 H            0.574209           -6.956839           -3.023961
 H            0.527575           -9.420535           -3.259486
 H            0.103124          -11.663290           -2.251441
 H           -0.617561          -11.869995            0.092979
 H           -0.928094           -9.841581            1.512723
 H           -0.845902           -7.378829            1.751044
 H           -0.755354           -4.930152            1.994742
 H           -0.627091           -2.472801            2.248334
 H            1.621061           -0.348366            2.485318
 H            1.582916            1.639608            3.922855
 H           -0.307176            3.270484            3.798901
 H           -2.446997            3.971182            2.807679
 H           -6.552248            5.393917            0.812718
 H           -8.660056            6.145826           -0.259008
 H          -10.491834            5.756465           -1.910843
 H          -10.490925            3.754221           -3.340815
 H           -8.659666            2.065485           -3.173143
 H           -6.552423            1.293694           -2.108106
 H           -2.475370           -0.155068           -0.072256

