96

 C           -0.175773           -3.168278            3.152705
 C           -1.387171           -2.578102            2.960145
 C           -1.842355           -2.351325            1.617975
 C           -2.993911           -1.800724            1.079351
 C           -4.230086           -1.254343            1.609312
 C           -4.690500           -1.664791            2.873360
 C           -5.876142           -1.136581            3.387910
 C           -6.611403           -0.203351            2.650180
 C           -6.160384            0.200309            1.388861
 C           -4.976352           -0.321561            0.865747
 O           -2.901134           -1.806560           -0.323434
 C           -1.664038           -2.381232           -0.657770
 C           -1.466928           -2.520868           -2.097880
 C           -1.789842           -3.765698           -2.667737
 C           -1.727855           -3.948689           -4.048580
 C           -1.365870           -2.878474           -4.872926
 C           -1.027774           -1.646686           -4.312404
 C           -1.032145           -1.458038           -2.919610
 C           -0.605968           -0.157656           -2.348075
 C           -1.446558            0.526124           -1.519223
 C           -1.057205            1.763185           -0.874969
 C           -1.904133            2.434289           -0.005633
 C           -1.491857            3.632963            0.636062
 C           -2.349296            4.330898            1.528716
 C           -1.935292            5.497467            2.152879
 C           -2.797904            6.224597            3.067718
 C           -2.373470            7.365191            3.669086
 C           -1.049706            7.884962            3.411221
 C           -0.206519            7.241173            2.564365
 C           -0.611037            6.016633            1.896214
 C            0.234571            5.344312            1.027538
 C           -0.178934            4.149037            0.380119
 C            0.678212            3.452708           -0.513688
 C            0.262286            2.286037           -1.136553
 C            1.112433            1.561719           -2.058769
 C            0.707353            0.402994           -2.651023
 C            1.604534           -0.233108           -3.648144
 C            1.479271            0.170943           -4.990811
 C            2.264904           -0.407167           -5.985828
 C            3.200766           -1.393780           -5.651491
 C            3.365683           -1.771747           -4.321402
 C            2.582628           -1.184658           -3.305351
 C            2.870526           -1.578447           -1.935056
 C            3.151162           -2.783805           -1.310758
 C            3.147423           -4.151022           -1.746233
 C            3.506510           -5.122776           -0.862626
 C            3.894887           -4.807445            0.496440
 C            3.896333           -3.526213            0.957517
 C            3.502613           -2.470014            0.069906
 C            3.392734           -1.095038            0.206430
 C            3.577698           -0.152059            1.296683
 C            3.189548           -0.511844            2.599196
 C            3.387348            0.382875            3.652785
 C            3.961680            1.636151            3.415256
 C            4.336182            1.999515            2.117410
 C            4.145114            1.111494            1.057113
 O            3.011906           -0.528300           -1.017556
 C           -0.988954           -2.733845            0.494681
 C            0.279112           -3.356687            0.749712
 C            0.659732           -3.566895            2.039155
 H            0.203329           -3.357281            4.155487
 H           -2.020946           -2.263713            3.785985
 H           -4.127837           -2.402644            3.444797
 H           -6.230743           -1.457198            4.366387
 H           -7.534895            0.205920            3.055168
 H           -6.735844            0.922489            0.811636
 H           -4.627903           -0.017781           -0.121374
 H           -2.100723           -4.587160           -2.020382
 H           -1.974432           -4.915416           -4.483233
 H           -1.347313           -3.005080           -5.954719
 H           -0.765223           -0.815760           -4.966819
 H           -2.446385            0.139828           -1.297058
 H           -2.898488            2.040106            0.205605
 H           -3.344762            3.930047            1.718790
 H           -3.792908            5.821127            3.251190
 H           -3.011868            7.917761            4.356536
 H           -0.756488            8.803656            3.916712
 H            0.793625            7.620829            2.359730
 H            1.235450            5.726987            0.831241
 H            1.675803            3.848524           -0.699755
 H            2.102484            1.973652           -2.262403
 H            0.756624            0.946289           -5.248487
 H            2.152171           -0.092482           -7.022401
 H            3.806484           -1.855898           -6.429178
 H            4.115379           -2.518478           -4.055217
 H            2.849209           -4.370878           -2.768893
 H            3.515005           -6.171992           -1.153072
 H            4.189985           -5.636784            1.137227
 H            4.196343           -3.269119            1.970932
 H            2.717896           -1.478353            2.779303
 H            3.085828            0.106053            4.661654
 H            4.111878            2.330939            4.239781
 H            4.776907            2.977596            1.932752
 H            4.430485            1.389664            0.042884
 H            0.903590           -3.639084           -0.098703
 H            1.611432           -4.043636            2.269978

