96

 C           -5.257956           -5.227721            3.134539
 C           -5.452316           -5.220194            1.786903
 C           -4.871916           -4.163299            1.009128
 C           -4.874554           -3.859282           -0.343553
 C           -5.454788           -4.453164           -1.535562
 C           -4.789317           -4.359595           -2.771052
 C           -5.352421           -4.936758           -3.910502
 C           -6.577219           -5.607589           -3.827651
 C           -7.241157           -5.700943           -2.600078
 C           -6.687143           -5.125427           -1.454626
 O           -4.118365           -2.698478           -0.565819
 C           -3.637455           -2.269403            0.680825
 C           -2.848204           -1.050853            0.647918
 C           -1.809624           -0.859086            1.576442
 C           -1.074412            0.326041            1.566874
 C           -1.367240            1.329916            0.630866
 C           -0.612279            2.604180            0.639568
 C           -1.230427            3.763513            0.999312
 C           -0.521682            5.027735            1.011425
 C           -1.141395            6.210132            1.386058
 C           -0.433020            7.441566            1.377567
 C           -1.055580            8.659801            1.760983
 C           -0.355831            9.856367            1.743320
 C           -0.973878           11.110638            2.136044
 C           -0.272577           12.272470            2.106903
 C            1.108607           12.289157            1.681142
 C            1.731451           11.142255            1.308134
 C            1.027879            9.871882            1.325157
 C            1.646993            8.688826            0.952937
 C            0.941513            7.455818            0.970862
 C            1.567129            6.236649            0.596346
 C            0.867299            5.039948            0.615789
 C            1.491322            3.783772            0.251307
 C            0.795147            2.612855            0.263647
 C            1.464800            1.345082           -0.107390
 C            2.463108            0.813613            0.724445
 C            3.118741           -0.363527            0.366058
 C            2.786979           -1.018382           -0.833763
 C            3.494208           -2.223075           -1.230361
 C            3.891503           -2.781016           -2.436045
 C            3.751120           -2.382896           -3.807452
 C            4.270178           -3.181437           -4.780599
 C            4.955969           -4.416406           -4.462790
 C            5.123669           -4.827653           -3.175675
 C            4.602520           -4.014092           -2.114908
 C            4.599491           -4.130348           -0.733334
 C            5.113258           -5.094332            0.224304
 C            4.433953           -5.323240            1.434400
 C            4.932166           -6.254870            2.346974
 C            6.105455           -6.961383            2.062047
 C            6.782937           -6.734475            0.859447
 C            6.293964           -5.803541           -0.059396
 O            3.920189           -3.038723           -0.171142
 C            1.773035           -0.495529           -1.656127
 C            1.116571            0.680287           -1.293302
 C           -2.390469            1.131594           -0.309627
 C           -3.125376           -0.053101           -0.304090
 C           -4.075344           -3.135641            1.671111
 C           -3.909210           -3.179262            3.095908
 C           -4.485700           -4.196075            3.794430
 H           -5.680098           -6.013979            3.758655
 H           -6.025909           -5.990378            1.276354
 H           -3.834253           -3.835805           -2.829463
 H           -4.835219           -4.865167           -4.866430
 H           -7.014417           -6.055078           -4.718687
 H           -8.195668           -6.221628           -2.537025
 H           -7.212700           -5.187485           -0.502302
 H           -1.571511           -1.642587            2.295993
 H           -0.265117            0.473326            2.282178
 H           -2.281604            3.771050            1.291784
 H           -2.186963            6.209049            1.693524
 H           -2.099966            8.639358            2.071329
 H           -2.015423           11.082343            2.453641
 H           -0.725139           13.218279            2.400680
 H            1.625640           13.247391            1.670750
 H            2.771730           11.138606            0.985198
 H            2.690714            8.690583            0.639634
 H            2.613188            6.256525            0.291220
 H            2.543259            3.807465           -0.037414
 H            2.724284            1.322968            1.651613
 H            3.893290           -0.782117            1.010525
 H            3.239925           -1.449451           -4.031634
 H            4.184462           -2.913740           -5.832647
 H            5.334872           -5.007208           -5.295392
 H            5.632193           -5.754952           -2.921630
 H            3.518921           -4.770315            1.650707
 H            4.403843           -6.432611            3.282701
 H            6.492006           -7.686319            2.776506
 H            7.697278           -7.283750            0.639348
 H            6.830546           -5.618739           -0.989379
 H            1.492177           -1.016505           -2.571469
 H            0.326009            1.082871           -1.926614
 H           -2.608784            1.905575           -1.044861
 H           -3.920148           -0.212897           -1.034435
 H           -3.333180           -2.393872            3.579938
 H           -4.382536           -4.263906            4.876428

