90

 C           -4.309662            1.107792            5.402957
 C           -2.870726            1.311180            5.458568
 C           -2.066549            0.946248            4.435083
 C           -2.635218            0.329680            3.239573
 N           -1.847942           -0.020675            2.233183
 C           -2.425882           -0.614113            1.108823
 C           -3.855479           -0.854061            1.072848
 N           -4.671568           -0.465652            2.140728
 C           -4.098571            0.109179            3.189171
 C           -4.902634            0.538545            4.329487
 C           -4.448457           -1.480778           -0.029272
 C           -3.637310           -1.893256           -1.097702
 N           -4.238814           -2.531923           -2.183689
 C           -3.461662           -2.933595           -3.182843
 C           -4.035984           -3.610010           -4.341139
 C           -3.236328           -4.033454           -5.346584
 C           -1.798070           -3.828230           -5.310503
 C           -1.200807           -3.204986           -4.269378
 C           -2.000204           -2.722093           -3.147284
 N           -1.411566           -2.116183           -2.123698
 C           -2.206262           -1.667024           -1.069870
 C           -1.604043           -0.990944            0.023418
 C           -0.146846           -0.721364            0.013254
 C            0.718566           -1.775867           -0.012006
 C            2.152430           -1.583976           -0.075300
 C            3.033294           -2.654463           -0.107161
 C            4.435675           -2.444464           -0.193006
 C            5.349162           -3.532022           -0.232253
 C            6.715612           -3.315998           -0.322483
 C            7.663913           -4.415241           -0.368377
 C            8.998407           -4.182739           -0.457142
 C            9.508568           -2.831566           -0.506970
 C            8.662061           -1.771077           -0.467499
 C            7.225561           -1.964745           -0.374655
 C            6.343958           -0.895503           -0.335798
 C            4.941409           -1.103920           -0.245359
 C            4.028781           -0.015917           -0.205966
 C            2.661957           -0.233860           -0.121318
 C            1.714833            0.860229           -0.068211
 C            0.369916            0.643214            0.006140
 C           -0.540033            1.809471            0.096507
 C           -0.464541            2.684018            1.211758
 N            0.496398            2.462161            2.197449
 C            0.528322            3.276037            3.245221
 C            1.516519            3.071940            4.300305
 C            1.554545            3.903995            5.365912
 C            0.624642            5.013412            5.494281
 C           -0.316993            5.258487            4.554825
 C           -0.416155            4.404300            3.375913
 N           -1.328293            4.648855            2.442349
 C           -1.378456            3.802096            1.333424
 C           -2.330571            4.061225            0.335596
 C           -2.383043            3.227708           -0.787663
 N           -3.325199            3.505616           -1.783707
 C           -3.356448            2.720890           -2.851897
 C           -4.323679            2.960568           -3.918699
 C           -4.339659            2.165845           -5.012400
 C           -3.408036            1.059320           -5.162574
 C           -2.491246            0.774654           -4.210779
 C           -2.417240            1.585562           -2.998334
 N           -1.524917            1.300843           -2.061217
 C           -1.480127            2.100638           -0.917101
 H           -4.894016            1.435442            6.264200
 H           -2.466555            1.772596            6.360638
 H           -0.982093            1.087092            4.448646
 H           -5.980806            0.377207            4.262090
 H           -5.530141           -1.651779           -0.056477
 H           -5.118820           -3.752632           -4.343602
 H           -3.646225           -4.545776           -6.218252
 H           -1.218570           -4.199016           -6.157123
 H           -0.122056           -3.036310           -4.216362
 H            0.348149           -2.802468           -0.007630
 H            2.655976           -3.675895           -0.069729
 H            4.956022           -4.547178           -0.190681
 H            7.265211           -5.427894           -0.329739
 H            9.717664           -4.999265           -0.493194
 H           10.586783           -2.697700           -0.576652
 H            9.032099           -0.747473           -0.504090
 H            6.719457            0.126439           -0.375486
 H            4.420252            1.000230           -0.243062
 H            2.117377            1.874672           -0.071286
 H            2.202436            2.229586            4.178550
 H            2.286347            3.769809            6.163739
 H            0.717951            5.643714            6.380031
 H           -1.026753            6.085531            4.627029
 H           -3.020335            4.906608            0.433608
 H           -5.014161            3.795581           -3.780734
 H           -5.055699            2.328693           -5.819401
 H           -3.480485            0.466568           -6.075411
 H           -1.778416           -0.050289           -4.296355

