94

 C           -1.663585           -4.224177            2.781990
 C           -2.059449           -2.830155            2.728313
 C           -1.283560           -1.909980            2.107888
 C           -0.035169           -2.285656            1.464575
 C            0.374866           -3.690757            1.542272
 C           -0.504010           -4.640191            2.223609
 N            1.508196           -4.146196            1.014507
 C            2.362437           -3.250555            0.373534
 C            3.568033           -3.752860           -0.148505
 C            4.481230           -2.894040           -0.771616
 C            5.729028           -3.348180           -1.312431
 C            6.601013           -2.454613           -1.888560
 C            7.886974           -2.838736           -2.446083
 C            8.713159           -1.913127           -2.990060
 C            8.337710           -0.512352           -3.036195
 C            7.151104           -0.090090           -2.542275
 C            6.217930           -1.041881           -1.941285
 N            5.060386           -0.587547           -1.463961
 C            4.175279           -1.487261           -0.872166
 C            2.961857           -0.989307           -0.360546
 C            2.041252           -1.847240            0.250673
 C            0.778763           -1.397958            0.789010
 C            0.392070            0.024089            0.615331
 C            0.788179            0.956995            1.525234
 C            0.424119            2.352842            1.385511
 C            0.823487            3.308376            2.308064
 C            0.450588            4.670591            2.157273
 C            0.849033            5.659237            3.097702
 C            0.480636            6.985823            2.939406
 C            0.879353            8.010368            3.889177
 C            0.508125            9.304279            3.715730
 C           -0.295578            9.694572            2.579327
 C           -0.692425            8.774640            1.663845
 C           -0.322099            7.376643            1.801743
 C           -0.717239            6.421703            0.878550
 C           -0.346974            5.057861            1.030684
 C           -0.748508            4.070315            0.092321
 C           -0.378417            2.743181            0.250802
 C           -0.774938            1.722029           -0.697811
 C           -0.411406            0.419656           -0.534277
 C           -0.837066           -0.599641           -1.525141
 C           -2.108746           -1.258653           -1.341624
 C           -2.993166           -0.939966           -0.305511
 C           -4.202448           -1.644154           -0.153430
 N           -5.036416           -1.300305            0.909425
 C           -6.182722           -1.959534            1.068152
 C           -7.056400           -1.589554            2.180751
 C           -8.227680           -2.237335            2.377010
 C           -8.646477           -3.312076            1.496877
 C           -7.877153           -3.695931            0.449940
 C           -6.608595           -3.041213            0.177147
 C           -5.789963           -3.385519           -0.872576
 C           -4.551243           -2.693716           -1.080441
 C           -3.683000           -2.993780           -2.136750
 C           -2.474234           -2.289653           -2.285306
 N           -1.659068           -2.616181           -3.367564
 C           -0.513619           -1.959424           -3.533382
 C            0.323824           -2.304546           -4.681222
 C            1.498502           -1.667603           -4.890919
 C            1.953424           -0.625683           -3.990594
 C            1.215082           -0.264736           -2.914321
 C           -0.051682           -0.913057           -2.616757
 H           -2.333184           -4.920055            3.287844
 H           -3.003171           -2.551117            3.198812
 H           -1.571766           -0.857048            2.073575
 H           -0.174544           -5.680417            2.251510
 H            3.780281           -4.820476           -0.053357
 H            5.965861           -4.411556           -1.252664
 H            8.156781           -3.894047           -2.406306
 H            9.681029           -2.188444           -3.407588
 H            9.047414            0.184706           -3.482857
 H            6.842211            0.956767           -2.562281
 H            2.757316            0.082545           -0.442699
 H            1.393753            0.674720            2.388959
 H            1.433203            3.022138            3.165403
 H            1.453865            5.355203            3.951978
 H            1.483904            7.701480            4.741181
 H            0.801865           10.080410            4.421163
 H           -0.568074           10.744939            2.486126
 H           -1.297295            9.054190            0.802020
 H           -1.322083            6.706825            0.017808
 H           -1.357316            4.372091           -0.760290
 H           -1.378991            2.031501           -1.553227
 H           -2.758893           -0.138289            0.401786
 H           -6.716390           -0.776197            2.824693
 H           -8.892394           -1.972384            3.199833
 H           -9.599959           -3.794001            1.710186
 H           -8.180737           -4.501586           -0.218373
 H           -6.061158           -4.185741           -1.562811
 H           -3.930719           -3.775335           -2.858937
 H           -0.048346           -3.090214           -5.341166
 H            2.136535           -1.915942           -5.739311
 H            2.909368           -0.148204           -4.208516
 H            1.548726            0.524754           -2.237462

