90

 C           -4.129052           -5.427699           -3.877171
 C           -4.587056           -6.119101           -2.784513
 C           -4.416141           -5.581165           -1.470441
 C           -3.767267           -4.330012           -1.302511
 C           -3.300193           -3.618232           -2.462359
 C           -3.484389           -4.172868           -3.715810
 C           -2.635024           -2.313735           -2.287372
 C           -2.190519           -1.584640           -3.374970
 C           -1.540166           -0.334915           -3.203322
 C           -1.343231            0.176954           -1.946102
 C           -1.791312           -0.540511           -0.792660
 C           -2.443415           -1.791415           -0.958985
 C           -2.902004           -2.511674            0.199212
 C           -2.689257           -1.977717            1.456882
 C           -2.040613           -0.729663            1.625356
 C           -1.599169           -0.017818            0.531904
 C           -0.958119            1.303736            0.734706
 C           -1.707568            2.438859            0.664445
 C           -1.125609            3.745669            0.895885
 C           -1.888128            4.902711            0.852297
 C           -1.301965            6.173792            1.095057
 C           -2.073466            7.366438            1.059309
 C           -1.490771            8.601854            1.295466
 C           -2.261385            9.832274            1.254007
 C           -1.670302           11.033127            1.480221
 C           -0.257322           11.115291            1.772725
 C            0.504433            9.993071            1.826709
 C           -0.077462            8.683891            1.588261
 C            0.684246            7.526463            1.630781
 C            0.099507            6.254914            1.385528
 C            0.870492            5.062222            1.424109
 C            0.286435            3.827033            1.188730
 C            1.052103            2.597527            1.237083
 C            0.466049            1.385413            1.030299
 C            1.272496            0.145203            1.128668
 C            1.282537           -0.562177            2.310539
 C            2.065574           -1.735431            2.440240
 C            2.842127           -2.198696            1.394165
 C            3.661920           -3.415820            1.532646
 C            3.692670           -4.135081            2.713641
 C            4.477162           -5.311781            2.837479
 C            5.225671           -5.761378            1.779379
 C            5.226017           -5.043691            0.542350
 C            4.445330           -3.865371            0.413118
 C            4.454539           -3.148288           -0.834146
 C            5.222296           -3.623502           -1.881775
 C            5.999831           -4.803954           -1.747192
 C            6.005095           -5.501547           -0.566055
 C            3.642581           -1.924470           -0.967429
 C            3.627384           -1.199705           -2.144931
 C            2.836933           -0.028184           -2.274326
 C            2.072510            0.411750           -1.223854
 C            2.061524           -0.303622            0.014755
 C            2.849017           -1.478363            0.148542
 C           -3.591080           -3.802793            0.024242
 C           -4.070703           -4.517935            1.106630
 C           -4.724476           -5.765853            0.931751
 C           -4.892702           -6.291357           -0.324256
 H           -4.251121           -5.827006           -4.883373
 H           -5.083183           -7.081456           -2.896630
 H           -3.135300           -3.655119           -4.610409
 H           -2.329786           -1.958663           -4.390773
 H           -1.200028            0.204012           -4.086923
 H           -0.842084            1.135444           -1.806423
 H           -3.020527           -2.510830            2.350151
 H           -1.901275           -0.342137            2.634664
 H           -2.774052            2.391826            0.436965
 H           -2.954560            4.849346            0.633079
 H           -3.138779            7.294456            0.841510
 H           -3.325158            9.754565            1.033421
 H           -2.237637           11.961984            1.448517
 H            0.169062           12.102031            1.946591
 H            1.570140           10.039315            2.046968
 H            1.749533            7.578333            1.854552
 H            1.935316            5.132319            1.646552
 H            2.119430            2.673069            1.452768
 H            0.690061           -0.229310            3.162929
 H            2.040379           -2.269002            3.392407
 H            3.109137           -3.811723            3.576815
 H            4.469716           -5.847679            3.785898
 H            5.826807           -6.665166            1.861572
 H            5.244487           -3.099220           -2.838249
 H            6.588631           -5.141978           -2.599166
 H            6.596437           -6.408364           -0.452235
 H            4.223880           -1.517044           -3.002063
 H            2.848588            0.509203           -3.221941
 H            1.462120            1.310671           -1.316689
 H           -3.953166           -4.135712            2.121621
 H           -5.085958           -6.294635            1.812919
 H           -5.387523           -7.249958           -0.469468

