96

 C            6.718109           -8.744727            2.036716
 C            7.512232           -8.696248            0.823328
 C            7.409277           -7.659967           -0.039888
 C            6.485802           -6.559201            0.231921
 N            6.408222           -5.558850           -0.643480
 C            5.528144           -4.506963           -0.390618
 C            5.451703           -3.456794           -1.321564
 C            4.581754           -2.378171           -1.106684
 C            4.485107           -1.298492           -2.044851
 C            3.632355           -0.240049           -1.829705
 C            3.518553            0.862050           -2.775187
 C            2.686951            1.903968           -2.540939
 C            1.876126            1.951350           -1.333309
 C            1.017860            3.140322           -1.124154
 C            1.585866            4.372910           -0.994658
 C            0.785153            5.560977           -0.777610
 C            1.358391            6.814313           -0.619769
 C            0.554467            7.964583           -0.399734
 C            1.129994            9.251446           -0.217016
 C            0.336097           10.364823            0.008779
 C            0.907795           11.684357            0.215007
 C            0.112838           12.760625            0.442727
 C           -1.325453           12.620705            0.477487
 C           -1.907492           11.409591            0.286552
 C           -1.102366           10.223953            0.048950
 C           -1.675337            8.975184           -0.132034
 C           -0.871380            7.823947           -0.352591
 C           -1.446657            6.536120           -0.518307
 C           -0.650361            5.418488           -0.719936
 C           -1.216441            4.092921           -0.863578
 C           -0.429462            2.994804           -1.046540
 C           -1.054805            1.657070           -1.160728
 C           -1.778260            1.133850           -0.134735
 C           -2.430387           -0.159427           -0.257704
 C           -3.167735           -0.700617            0.771513
 C           -3.826079           -1.965272            0.629880
 C           -4.579015           -2.520764            1.676821
 C           -5.226003           -3.754262            1.523236
 C           -6.000151           -4.360997            2.565198
 C           -6.616298           -5.572418            2.356199
 C           -7.410670           -6.249484            3.367028
 C           -7.997589           -7.442007            3.105756
 C           -7.854095           -8.075672            1.808464
 C           -7.127621           -7.498429            0.824029
 C           -6.464083           -6.214935            1.049008
 N           -5.749775           -5.682305            0.059409
 C           -5.117300           -4.457075            0.266802
 C           -4.359891           -3.906133           -0.781868
 C           -3.710878           -2.674101           -0.619005
 C           -2.928335           -2.096329           -1.672737
 C           -2.299767           -0.882730           -1.513105
 C           -1.497185           -0.283647           -2.571181
 C           -0.904255            0.921810           -2.406591
 C            1.934800            0.940547           -0.426471
 C            2.811881           -0.201476           -0.629502
 C            2.884771           -1.231215            0.282037
 C            3.762209           -2.345207            0.077499
 C            3.838841           -3.397975            1.004034
 C            4.704856           -4.479455            0.795361
 C            4.815538           -5.574711            1.712840
 C            5.684736           -6.608972            1.457040
 C            5.848463           -7.751296            2.339926
 H            6.848520           -9.607601            2.688525
 H            8.193151           -9.526488            0.635291
 H            7.993967           -7.595203           -0.959602
 H            6.079811           -3.495377           -2.214219
 H            5.108950           -1.339836           -2.937983
 H            4.128525            0.814139           -3.677548
 H            2.596337            2.732105           -3.243257
 H            2.668964            4.496910           -1.043776
 H            2.441185            6.931635           -0.658141
 H            2.214664            9.349485           -0.253279
 H            1.992810           11.775087            0.182804
 H            0.530422           13.753343            0.604111
 H           -1.918716           13.515406            0.660422
 H           -2.989880           11.288904            0.307620
 H           -2.758491            8.859461           -0.103930
 H           -2.531367            6.437507           -0.479393
 H           -2.303076            4.001300           -0.820331
 H           -1.894270            1.668951            0.807472
 H           -3.268200           -0.171926            1.719112
 H           -4.662289           -1.985380            2.622701
 H           -6.086384           -3.842102            3.520318
 H           -7.511844           -5.761225            4.335821
 H           -8.593313           -7.961405            3.855353
 H           -8.354209           -9.032540            1.658521
 H           -7.003742           -7.949465           -0.162426
 H           -4.285779           -4.453750           -1.724158
 H           -2.844168           -2.648526           -2.609227
 H           -1.390090           -0.845906           -3.499266
 H           -0.298561            1.376327           -3.190847
 H            1.325623            0.955578            0.478047
 H            2.270104           -1.218299            1.182384
 H            3.215003           -3.374376            1.898030
 H            4.196505           -5.567217            2.610585
 H            5.246170           -7.774058            3.247601

