96

 C           -3.531303           -0.493645           -5.961048
 C           -2.088253           -0.356995           -5.883445
 C           -1.442521           -0.423871           -4.697056
 C           -2.191732           -0.632138           -3.457624
 N           -1.522657           -0.692803           -2.310819
 C           -2.218932           -0.879569           -1.117785
 C           -3.654803           -1.032555           -1.113920
 C           -4.345615           -0.961873           -2.369888
 C           -3.649001           -0.764812           -3.537090
 C           -4.275458           -0.687407           -4.846046
 C           -4.323205           -1.248562            0.094666
 C           -3.613212           -1.337280            1.303735
 C           -4.299921           -1.579102            2.537482
 C           -3.617740           -1.684782            3.728835
 C           -4.298427           -1.930823            4.992211
 C           -3.602450           -2.038905            6.149796
 C           -2.159217           -1.910906            6.159593
 C           -1.476904           -1.678964            5.012092
 C           -2.171744           -1.552672            3.738524
 C           -1.496137           -1.314725            2.562042
 C           -2.181317           -1.189808            1.309338
 C           -1.497320           -0.931965            0.096710
 C           -0.023901           -0.749701            0.099943
 C            0.778815           -1.830715            0.315925
 C            2.220030           -1.707313            0.396620
 C            3.038516           -2.802169            0.627171
 C            4.449308           -2.655747            0.719964
 C            5.299276           -3.770573            0.949285
 C            6.674640           -3.616087            1.037823
 C            7.559213           -4.744977            1.266925
 C            8.903124           -4.572333            1.352899
 C            9.486730           -3.257441            1.216576
 C            8.701345           -2.171703            0.998180
 C            7.258329           -2.301686            0.898410
 C            6.438321           -1.206037            0.673396
 C            5.028640           -1.352216            0.577231
 C            4.178494           -0.238315            0.338322
 C            2.804396           -0.395040            0.242990
 C            1.922171            0.722908           -0.024747
 C            0.570080            0.569101           -0.105416
 C           -0.281648            1.734271           -0.448210
 C           -1.134141            2.328600            0.507347
 C           -1.156769            1.901789            1.875679
 C           -2.000065            2.475459            2.800073
 C           -2.048957            2.021029            4.182959
 C           -2.873387            2.609342            5.082572
 C           -3.730469            3.710270            4.690971
 C           -3.736409            4.163092            3.414108
 C           -2.876727            3.564206            2.402544
 C           -2.867036            4.001743            1.097996
 C           -2.006786            3.406309            0.118213
 C           -2.006810            3.862254           -1.208269
 C           -1.132368            3.314922           -2.154408
 C           -1.096032            3.771544           -3.512946
 C           -0.195794            3.236086           -4.402942
 C           -0.100438            3.642889           -5.794381
 C            0.830798            3.099209           -6.614456
 C            1.757906            2.094495           -6.128459
 C            1.716193            1.666575           -4.845737
 C            0.727088            2.210549           -3.914838
 N            0.710057            1.756220           -2.664677
 C           -0.227278            2.260124           -1.764946
 H           -3.989142           -0.435187           -6.947670
 H           -1.546848           -0.198183           -6.815975
 H           -0.357118           -0.322301           -4.603643
 H           -5.430230           -1.070436           -2.370991
 H           -5.358490           -0.792887           -4.891653
 H           -5.408177           -1.353645            0.099753
 H           -5.385066           -1.677954            2.511226
 H           -5.383505           -2.023498            4.968434
 H           -4.100631           -2.225150            7.100054
 H           -1.649136           -2.009624            7.116773
 H           -0.391333           -1.584530            5.003274
 H           -0.407267           -1.224293            2.568301
 H            0.351756           -2.827886            0.432241
 H            2.606765           -3.796130            0.738185
 H            4.851074           -4.758227            1.052257
 H            7.105379           -5.730099            1.365468
 H            9.574671           -5.411649            1.525632
 H           10.569087           -3.170570            1.295076
 H            9.127037           -1.174913            0.891214
 H            6.870253           -0.211686            0.564028
 H            4.626583            0.748543            0.224330
 H            2.381333            1.698571           -0.194581
 H           -0.477895            1.100042            2.173592
 H           -1.409261            1.181758            4.458238
 H           -2.921390            2.272979            6.116835
 H           -4.365773            4.153200            5.456533
 H           -4.379343            4.985091            3.103606
 H           -3.515990            4.817845            0.782601
 H           -2.692504            4.655393           -1.505065
 H           -1.795751            4.549972           -3.817139
 H           -0.802920            4.397097           -6.146814
 H            0.914996            3.398700           -7.658128
 H            2.488052            1.700399           -6.835091
 H            2.400398            0.912086           -4.450693

