80

 C           -1.177056           -6.896342           -2.477033
 C           -2.277394           -6.199187           -2.113697
 C           -2.165797           -4.880140           -1.497475
 C           -3.264427           -4.170543           -1.100844
 C           -3.145624           -2.873215           -0.473016
 C           -4.269385           -2.195006           -0.037903
 C           -4.138072           -0.939810            0.610812
 C           -5.144096           -0.142707            1.153141
 S           -4.465903            1.239991            1.852731
 C           -2.862491            0.851378            1.480437
 C           -2.811819           -0.358734            0.790975
 C           -1.666036           -1.054644            0.295434
 C           -0.338512           -0.420728            0.479322
 C            0.318758           -0.567925            1.663798
 C            1.594754            0.072382            1.911269
 C            2.261425           -0.065224            3.119105
 C            3.504448            0.584349            3.347563
 C            4.191210            0.462540            4.585541
 C            5.404769            1.099074            4.796065
 C            6.118716            0.990408            6.056367
 C            7.308201            1.618059            6.240413
 C            7.894670            2.409809            5.183100
 C            7.264850            2.543654            3.988114
 C            5.988270            1.896459            3.740845
 C            5.325437            2.025731            2.530072
 C            4.077643            1.384403            2.305198
 C            3.384821            1.516821            1.071685
 C            2.169769            0.882580            0.863100
 C            1.449057            1.001070           -0.388190
 C            0.253646            0.378390           -0.587712
 C           -0.425684            0.502329           -1.899489
 C           -1.403457            1.461479           -2.138504
 C           -1.787364            2.428991           -1.135152
 C           -2.751897            3.370060           -1.367525
 C           -3.133307            4.354134           -0.358509
 C           -4.093096            5.274610           -0.605547
 C           -4.775350            5.311435           -1.887577
 C           -4.464257            4.427173           -2.862285
 C           -3.432677            3.413608           -2.661001
 C           -3.088358            2.525035           -3.640694
 C           -2.059503            1.529359           -3.437023
 C           -1.699860            0.667021           -4.456390
 C           -0.672028           -0.289752           -4.251946
 C           -0.152226           -1.202462           -5.167527
 S            1.083001           -2.102308           -4.442548
 C            0.987206           -1.341326           -2.935107
 C           -0.016269           -0.374301           -2.951132
 C           -1.816706           -2.303702           -0.296132
 C           -0.681710           -3.087662           -0.729021
 C           -0.828643           -4.322603           -1.297692
 C            0.317479           -5.124842           -1.715686
 C            0.151949           -6.346309           -2.272542
 H           -1.249452           -7.883691           -2.930195
 H           -3.281207           -6.594230           -2.264144
 H           -4.268743           -4.568706           -1.242209
 H           -5.265366           -2.611057           -0.175366
 H           -6.199167           -0.348853            1.143002
 H           -2.020592            1.464067            1.753663
 H           -0.107300           -1.174097            2.465246
 H            1.835083           -0.677960            3.913212
 H            3.744558           -0.142884            5.373963
 H            5.665212            0.389760            6.843725
 H            7.851349            1.543349            7.181139
 H            8.851478            2.891216            5.378909
 H            7.694917            3.136976            3.182221
 H            5.757117            2.625438            1.728989
 H            3.824632            2.130243            0.285409
 H            1.898159            1.609318           -1.175441
 H           -1.270903            2.387194           -0.174415
 H           -2.612300            4.315098            0.597304
 H           -4.384785            6.011993            0.140243
 H           -5.539704            6.073718           -2.029691
 H           -4.968081            4.438718           -3.827867
 H           -3.581566            2.544402           -4.612043
 H           -2.189119            0.709590           -5.427371
 H           -0.468558           -1.337417           -6.186113
 H            1.624925           -1.583392           -2.102399
 H            0.310777           -2.659200           -0.577968
 H            1.307611           -4.699272           -1.557278
 H            1.000052           -6.953180           -2.584617

