80

 C           -5.022281           -5.889033           -1.575781
 C           -4.637699           -5.664724           -0.298904
 C           -3.859000           -4.482647            0.059365
 C           -3.451957           -4.246269            1.343337
 C           -2.679805           -3.074440            1.690272
 C           -2.261522           -2.849001            2.990182
 C           -1.500820           -1.692512            3.306244
 C           -0.995486           -1.306153            4.546741
 S           -0.151093            0.150196            4.402758
 C           -0.418374            0.335073            2.732237
 C            0.062386            1.502596            2.012184
 C           -0.832156            2.417484            1.536797
 C           -0.404966            3.598955            0.817253
 C           -1.310964            4.539732            0.351507
 C           -0.871641            5.688537           -0.359254
 C           -1.788209            6.666575           -0.830710
 C           -1.349042            7.778103           -1.532878
 C           -2.269858            8.792507           -2.015329
 C           -1.820203            9.868447           -2.710136
 C           -0.411053           10.029729           -2.988271
 C            0.489543            9.112445           -2.552350
 C            0.061844            7.946433           -1.799407
 C            0.966339            7.003642           -1.336428
 C            0.529164            5.865053           -0.607653
 C            1.447854            4.898385           -0.118355
 C            1.007733            3.788764            0.587193
 C            1.929255            2.799820            1.106741
 C            1.494593            1.704048            1.794589
 C            2.456891            0.735927            2.295035
 C            2.727669           -0.557698            1.850713
 C            2.102155           -1.279232            0.796706
 C            2.554129           -2.538393            0.451915
 C            1.966778           -3.270408           -0.649279
 C            2.438941           -4.495303           -1.029090
 C            1.879719           -5.221389           -2.166037
 C            2.375084           -6.421992           -2.542642
 C            3.472197           -7.034965           -1.813291
 C            4.020945           -6.419610           -0.741771
 C            3.544267           -5.113527           -0.293470
 C            4.104562           -4.465618            0.771427
 C            3.655562           -3.153136            1.183661
 C            4.258797           -2.482581            2.230116
 C            3.828310           -1.173726            2.587298
 C            4.345057           -0.337680            3.570228
 S            3.522111            1.146002            3.567897
 C           -1.171008           -0.741436            2.250219
 C           -1.611705           -0.990028            0.924515
 C           -2.345650           -2.127893            0.635798
 C           -2.794508           -2.411552           -0.708578
 C           -3.514553           -3.536671           -1.002599
 C           -3.959420           -3.838298           -2.360250
 C           -4.671900           -4.955244           -2.631914
 H           -5.602469           -6.767370           -1.853521
 H           -4.892970           -6.355255            0.504165
 H           -3.698453           -4.941340            2.145917
 H           -2.501841           -3.550267            3.787335
 H           -1.104530           -1.838883            5.474899
 H           -1.903877            2.279720            1.693211
 H           -2.378411            4.407105            0.526736
 H           -2.850253            6.528984           -0.629199
 H           -3.328712            8.657648           -1.798163
 H           -2.501136           10.636069           -3.074551
 H           -0.101909           10.906635           -3.554940
 H            1.554525            9.220449           -2.753816
 H            2.032270            7.125337           -1.527527
 H            2.511636            5.042647           -0.306623
 H            2.993106            2.957472            0.919290
 H            1.264910           -0.814433            0.274695
 H            1.132070           -2.803305           -1.173227
 H            1.051013           -4.753093           -2.696363
 H            1.972050           -6.966204           -3.394766
 H            3.828471           -8.002616           -2.162926
 H            4.837962           -6.870592           -0.180086
 H            4.917372           -4.918331            1.338399
 H            5.075291           -2.932523            2.790870
 H            5.149923           -0.563085            4.246971
 H           -1.360273           -0.269495            0.147152
 H           -2.536652           -1.693383           -1.486457
 H           -3.691583           -3.127979           -3.141392
 H           -5.004840           -5.191008           -3.641433

