50

 C           -5.469909            2.925902            0.261002
 C           -4.582045            3.166690           -0.792148
 C           -3.390075            2.443307           -0.885980
 C           -3.083110            1.471321            0.078828
 C           -1.802148            0.730495            0.004199
 C           -0.623557            1.396399            0.161048
 C            0.651007            0.708418            0.112601
 C            1.852900            1.379100            0.281118
 C            3.092565            0.687303            0.220011
 C            4.331016            1.362502            0.391323
 C            5.534856            0.678331            0.321373
 C            6.810421            1.352072            0.491508
 C            7.978267            0.663883            0.417742
 C            7.979817           -0.759598            0.168272
 C            6.813548           -1.433954            0.002542
 C            5.536495           -0.745286            0.071598
 C            4.334176           -1.415316           -0.094092
 C            3.094115           -0.725469           -0.022931
 C            1.855556           -1.402531           -0.185683
 C            0.652058           -0.717321           -0.118236
 C           -0.621895           -1.389817           -0.275223
 C           -1.801406           -0.709350           -0.220678
 C           -3.080060           -1.434222           -0.406810
 C           -3.874159           -1.181643           -1.536213
 C           -5.059693           -1.894912           -1.728206
 C           -5.460491           -2.858047           -0.796388
 C           -4.673111           -3.106095            0.332300
 C           -3.484561           -2.398034            0.529749
 C           -3.978487            1.225198            1.131274
 C           -5.166910            1.953852            1.220132
 H           -6.396234            3.492251            0.333639
 H           -4.818555            3.921121           -1.540560
 H           -2.700302            2.631213           -1.706937
 H           -0.609344            2.473531            0.333773
 H            1.860493            2.453319            0.463689
 H            4.320452            2.435540            0.580278
 H            6.794050            2.424847            0.679184
 H            8.939758            1.159551            0.543191
 H            8.942342           -1.266523            0.118751
 H            6.799316           -2.506632           -0.186122
 H            4.326109           -2.488367           -0.283141
 H            1.865367           -2.477062           -0.366306
 H           -0.606133           -2.467239           -0.445743
 H           -3.563828           -0.427746           -2.258594
 H           -5.673032           -1.699251           -2.606282
 H           -6.384331           -3.412264           -0.949256
 H           -4.985210           -3.854603            1.058616
 H           -2.872784           -2.591852            1.409083
 H           -3.744300            0.463857            1.874278
 H           -5.859114            1.763030            2.038628

