78

 C           -4.068405            7.134463           -0.693093
 C           -3.220698            6.810177           -1.754638
 C           -2.383540            5.686133           -1.673490
 C           -2.407678            4.883594           -0.499447
 C           -3.275699            5.221028            0.575797
 C           -4.099675            6.352048            0.463512
 C           -3.281505            4.376089            1.758667
 C           -2.479502            3.288533            1.852068
 C           -1.572421            2.923941            0.775857
 C           -0.721455            1.813219            0.869536
 C            0.151510            1.502670           -0.181386
 C            1.096950            0.368439           -0.053647
 C            2.438957            0.608343           -0.077425
 C            3.405085           -0.464732            0.035658
 C            4.771024           -0.224771            0.018929
 C            5.701772           -1.292628            0.118611
 C            7.103793           -1.059921            0.103682
 C            8.003430           -2.109744            0.197102
 C            9.439506           -1.891137            0.182101
 C           10.303989           -2.933317            0.275092
 C            9.814919           -4.288559            0.392034
 C            8.482140           -4.544225            0.409719
 C            7.514128           -3.465459            0.312547
 C            6.149272           -3.704741            0.328844
 C            5.216450           -2.636523            0.235073
 C            3.815590           -2.868707            0.256479
 C            2.916128           -1.816957            0.164635
 C            1.483748           -2.029488            0.198696
 C            0.604125           -0.992619            0.101700
 C           -0.852264           -1.264800            0.152341
 C           -1.652237           -1.024075           -0.972160
 C           -3.019798           -1.334069           -0.944979
 C           -3.589907           -1.885745            0.235555
 C           -2.774634           -2.111200            1.378885
 C           -1.408685           -1.799750            1.323070
 C           -3.387901           -2.668280            2.573672
 C           -4.705981           -2.978861            2.609100
 C           -5.563829           -2.768588            1.454630
 C           -6.930381           -3.089529            1.473672
 C           -7.720372           -2.871990            0.342630
 C           -7.169614           -2.335581           -0.823463
 C           -5.806957           -2.001607           -0.874302
 C           -4.994147           -2.219765            0.272493
 C           -5.195290           -1.434342           -2.064707
 C           -3.879177           -1.115382           -2.097155
 C            0.170427            2.281919           -1.347187
 C           -0.674758            3.393980           -1.468572
 C           -1.548818            3.727495           -0.397510
 C           -0.680215            4.228643           -2.659065
 C           -1.487793            5.311907           -2.755461
 H           -4.714797            8.008349           -0.768751
 H           -3.209133            7.431685           -2.648377
 H           -4.766353            6.620679            1.281267
 H           -3.958654            4.649834            2.567704
 H           -2.489391            2.650824            2.736293
 H           -0.738025            1.186072            1.760934
 H            2.822993            1.624801           -0.179666
 H            5.148249            0.793605           -0.071576
 H            7.462908           -0.034747            0.017163
 H            9.792763           -0.864523            0.093518
 H           11.382248           -2.781772            0.264399
 H           10.549575           -5.088994            0.464921
 H            8.098453           -5.559938            0.497204
 H            5.771393           -4.723224            0.414403
 H            3.454429           -3.892891            0.346955
 H            1.127233           -3.055679            0.302613
 H           -1.207531           -0.593425           -1.869208
 H           -0.774929           -1.974981            2.191334
 H           -2.745776           -2.826844            3.439886
 H           -5.164554           -3.396799            3.505210
 H           -7.376566           -3.510251            2.373166
 H           -8.780275           -3.123222            0.370502
 H           -7.800121           -2.175367           -1.696448
 H           -5.837225           -1.272854           -2.930578
 H           -3.422512           -0.683488           -2.987944
 H            0.845844            2.021317           -2.160877
 H           -0.008713            3.949288           -3.470718
 H           -1.490839            5.937018           -3.648332

