110

 C            4.929477           -5.705389           -6.553081
 C            4.857593           -5.831888           -5.207791
 C            4.298496           -4.769362           -4.379255
 C            4.217843           -4.880939           -3.015152
 C            3.660081           -3.826131           -2.207829
 C            3.574162           -3.932311           -0.823811
 C            3.019487           -2.889508           -0.039535
 C            2.927411           -2.989287            1.371371
 C            2.375036           -1.963510            2.131405
 C            2.265948           -2.052209            3.564119
 C            1.710311           -1.040374            4.305078
 C            1.591536           -1.139359            5.754893
 C            1.041526           -0.138700            6.480360
 C            0.556928            1.063204            5.834736
 C            0.638725            1.217135            4.487356
 C            0.153429            2.466293            3.852032
 C            1.040310            3.398973            3.404857
 C            0.596788            4.640618            2.802990
 C            1.493636            5.605550            2.369818
 C            1.038688            6.823450            1.797143
 C            1.947090            7.827308            1.364984
 C            1.491587            9.015959            0.816192
 C            2.404856           10.055106            0.373241
 C            1.938469           11.210610           -0.165069
 C            0.517909           11.435258           -0.309482
 C           -0.375450           10.495553            0.092102
 C            0.070835            9.241707            0.674063
 C           -0.824815            8.268868            1.089898
 C           -0.370168            7.048185            1.658076
 C           -1.278789            6.048718            2.098219
 C           -0.822803            4.868474            2.665675
 C           -1.733767            3.849417            3.148259
 C           -1.278917            2.703907            3.727969
 C           -2.242828            1.711930            4.266265
 C           -2.667661            0.590620            3.423911
 C           -2.186399            0.392511            2.155310
 C           -2.628681           -0.712472            1.343900
 C           -2.127954           -0.925488            0.063350
 C           -2.578865           -2.009399           -0.730723
 C           -2.074992           -2.235865           -2.036830
 C           -2.526466           -3.300061           -2.809786
 C           -2.024229           -3.537947           -4.139223
 C           -2.466311           -4.595775           -4.891040
 C           -1.964991           -4.849455           -6.237468
 C           -2.404832           -5.905322           -6.960470
 C           -3.394069           -6.817031           -6.415707
 C           -3.900647           -6.628225           -5.175238
 C           -3.466968           -5.508995           -4.345940
 C           -3.969163           -5.302755           -3.087062
 C           -3.524874           -4.199694           -2.273490
 C           -4.025435           -3.986374           -0.993918
 C           -3.573224           -2.902834           -0.198635
 C           -4.072225           -2.681562            1.108997
 C           -3.618900           -1.617734            1.882604
 C           -4.103620           -1.389156            3.218568
 C           -3.651219           -0.338042            3.974973
 C           -4.132170           -0.118355            5.333894
 C           -3.694597            0.929835            6.068696
 C           -2.737477            1.868672            5.522168
 C            1.221518            0.167648            3.644373
 C            1.319612            0.279073            2.281257
 C            1.888809           -0.770375            1.475389
 C            1.977686           -0.661643            0.091427
 C            2.536022           -1.702171           -0.692641
 C            2.629937           -1.603040           -2.103854
 C            3.177789           -2.630522           -2.864492
 C            3.280143           -2.540738           -4.298826
 C            3.816289           -3.560801           -5.041883
 C            3.925222           -3.483814           -6.494768
 C            4.452853           -4.503073           -7.211695
 H            5.343774           -6.493560           -7.179704
 H            5.212000           -6.727546           -4.698550
 H            4.573883           -5.776665           -2.506328
 H            3.933841           -4.831275           -0.323422
 H            3.295290           -3.891475            1.859432
 H            2.637311           -2.956320            4.046246
 H            1.959200           -2.050185            6.225886
 H            0.943665           -0.202790            7.563237
 H            0.121407            1.836632            6.467369
 H            2.115866            3.236300            3.496258
 H            2.566547            5.441503            2.469361
 H            3.016266            7.648047            1.474407
 H            3.472438            9.872209            0.488655
 H            2.614287           11.996103           -0.500243
 H            0.194116           12.378064           -0.747935
 H           -1.448678           10.651333           -0.010119
 H           -1.897362            8.431120            0.987016
 H           -2.348362            6.226997            1.987417
 H           -2.803913            4.035243            3.040874
 H           -1.447499            1.071828            1.725947
 H           -1.370368           -0.255363           -0.342753
 H           -1.315435           -1.560766           -2.430577
 H           -1.274800           -2.849289           -4.529305
 H           -1.222694           -4.156917           -6.633152
 H           -2.035386           -6.104688           -7.965052
 H           -3.709065           -7.651255           -7.040373
 H           -4.644654           -7.302698           -4.753227
 H           -4.718157           -5.973943           -2.667941
 H           -4.776910           -4.660253           -0.584008
 H           -4.821523           -3.364266            1.507762
 H           -4.843548           -2.083391            3.615453
 H           -4.853119           -0.832135            5.730338
 H           -4.044928            1.102386            7.085404
 H           -2.431153            2.702870            6.152413
 H            0.966123            1.173619            1.765516
 H            1.614956            0.236030           -0.407719
 H            2.264115           -0.700503           -2.591758
 H            2.917599           -1.631611           -4.777434
 H            3.566051           -2.574797           -6.975695
 H            4.537991           -4.455793           -8.296322

