110

 C            9.211396           -8.919056            0.182576
 C            8.525567           -8.146057           -0.691021
 C            7.828963           -6.943221           -0.248030
 C            7.128911           -6.148286           -1.118707
 C            6.445640           -4.962460           -0.668536
 C            5.733375           -4.150282           -1.544894
 C            5.064971           -2.985653           -1.089550
 C            4.334826           -2.150892           -1.972976
 C            3.679302           -1.012811           -1.514198
 C            2.929745           -0.157887           -2.399517
 C            2.278150            0.955611           -1.935067
 C            1.510572            1.827436           -2.817678
 C            0.875981            2.924410           -2.345643
 C            0.940700            3.269966           -0.931789
 C            0.255714            4.506305           -0.487944
 C            0.711880            5.721006           -0.904766
 C            0.088030            6.955615           -0.472613
 C            0.550578            8.195278           -0.888533
 C           -0.073240            9.394350           -0.450704
 C            0.392423           10.671041           -0.867122
 C           -0.225216           11.834236           -0.434523
 C            0.236937           13.147563           -0.849367
 C           -0.382736           14.274338           -0.414901
 C           -1.520517           14.194034            0.472892
 C           -1.989766           12.990223            0.888782
 C           -1.362849           11.753960            0.454143
 C           -1.825443           10.514518            0.867900
 C           -1.199646            9.314959            0.432711
 C           -1.663472            8.039345            0.852125
 C           -1.044800            6.875898            0.419507
 C           -1.503082            5.565544            0.835000
 C           -0.892597            4.425416            0.404955
 C           -1.410827            3.105854            0.834213
 C           -1.345725            2.776209            2.251955
 C           -1.838454            1.603760            2.711504
 C           -2.449686            0.632115            1.811333
 C           -2.958573           -0.558296            2.263029
 C           -3.553033           -1.511217            1.360317
 C           -4.062402           -2.726526            1.806351
 C           -4.639621           -3.657183            0.905833
 C           -5.158124           -4.900558            1.348104
 C           -5.720626           -5.806442            0.454891
 C           -6.250834           -7.072896            0.891475
 C           -6.803759           -7.959905            0.004070
 C           -7.344569           -9.245087            0.433072
 C           -7.886833          -10.108141           -0.456908
 C           -7.945846           -9.778824           -1.869228
 C           -7.459519           -8.601517           -2.325793
 C           -6.863014           -7.628794           -1.416784
 C           -6.365559           -6.431137           -1.861505
 C           -5.779775           -5.478794           -0.953080
 C           -5.274154           -4.261803           -1.396972
 C           -4.699491           -3.332003           -0.494381
 C           -4.180475           -2.090488           -0.939118
 C           -3.612845           -1.185924           -0.048091
 C           -3.074441            0.073956           -0.491910
 C           -2.508231            0.958640            0.389763
 C           -1.959049            2.233741           -0.050062
 C            1.633324            2.489312           -0.063593
 C            2.338791            1.298796           -0.517489
 C            3.050946            0.507850            0.347237
 C            3.742288           -0.669871           -0.110110
 C            4.459627           -1.479837            0.763804
 C            5.128551           -2.642463            0.306207
 C            5.856949           -3.476333            1.191382
 C            6.508752           -4.616779            0.734954
 C            7.251219           -5.471701            1.625562
 C            7.892011           -6.594192            1.168375
 C            8.647426           -7.468176            2.059299
 C            9.273724           -8.572273            1.590568
 H            9.734420           -9.818579           -0.138197
 H            8.469490           -8.393186           -1.750503
 H            7.071582           -6.395484           -2.178481
 H            5.681304           -4.405724           -2.603001
 H            4.291021           -2.416475           -3.028863
 H            2.894707           -0.426597           -3.454962
 H            1.469116            1.557436           -3.872750
 H            0.298278            3.578520           -2.997640
 H            1.570684            5.795797           -1.573787
 H            1.405436            8.264231           -1.561124
 H            1.250077           10.722091           -1.537567
 H            1.094902           13.192755           -1.518986
 H           -0.044608           15.263599           -0.719709
 H           -1.982879           15.126677            0.792621
 H           -2.846317           12.914123            1.557434
 H           -2.682438           10.444423            1.537506
 H           -2.520187            7.987693            1.523943
 H           -2.365222            5.520054            1.502427
 H           -0.884414            3.505104            2.917410
 H           -1.794382            1.344931            3.769292
 H           -2.923591           -0.815636            3.321322
 H           -4.019987           -2.979269            2.865460
 H           -5.109428           -5.142048            2.409665
 H           -6.198279           -7.305597            1.954795
 H           -7.292824           -9.478164            1.495973
 H           -8.293162          -11.069488           -0.146627
 H           -8.393212          -10.511226           -2.539362
 H           -7.495971           -8.339531           -3.382540
 H           -6.401016           -6.168778           -2.918613
 H           -5.314573           -4.008918           -2.456154
 H           -4.229804           -1.851010           -2.001083
 H           -3.127543            0.302480           -1.556214
 H           -2.002242            2.459161           -1.115945
 H            1.679980            2.727159            0.999376
 H            3.108089            0.750630            1.408203
 H            4.512603           -1.226026            1.822289
 H            5.899744           -3.210283            2.247270
 H            7.287620           -5.197256            2.679591
 H            8.684726           -7.194136            3.112972
 H            9.839959           -9.230974            2.247270

