98

 C            7.189084           -8.680735            0.940332
 C            6.488127           -8.029813           -0.019088
 C            5.940387           -6.701862            0.220996
 C            5.222371           -6.026063           -0.740361
 C            4.679273           -4.725223           -0.484486
 C            3.934641           -4.033218           -1.453106
 C            3.396995           -2.764787           -1.185356
 C            2.621022           -2.053770           -2.158732
 C            2.104484           -0.807003           -1.886943
 C            1.305887           -0.071922           -2.858591
 C            0.817813            1.159878           -2.580506
 C            1.090825            1.789680           -1.298653
 C            0.586236            3.161167           -1.059027
 C            1.469858            4.187587           -0.909321
 C            1.022772            5.539852           -0.645665
 C            1.918891            6.583952           -0.473546
 C            1.462906            7.898006           -0.186574
 C            2.371701            8.973273            0.008006
 C            1.916961           10.248963            0.302280
 C            2.831098           11.358486            0.511360
 C            2.365480           12.600606            0.798742
 C            0.945323           12.848686            0.904542
 C            0.051531           11.844092            0.719535
 C            0.496469           10.496516            0.409032
 C           -0.399513            9.456709            0.215715
 C            0.054341            8.143301           -0.083112
 C           -0.853668            7.067744           -0.275487
 C           -0.396525            5.787149           -0.548740
 C           -1.303677            4.672268           -0.732673
 C           -0.846027            3.411137           -0.973565
 C           -1.803278            2.292898           -1.133144
 C           -2.733140            2.348389           -2.250689
 C           -3.654643            1.372978           -2.429776
 C           -3.746721            0.243286           -1.515294
 C           -4.686209           -0.749623           -1.677012
 C           -4.764265           -1.852842           -0.765595
 C           -5.721827           -2.867258           -0.918133
 C           -5.784019           -3.946751           -0.022952
 C           -6.747892           -4.995464           -0.176489
 C           -6.794748           -6.055952            0.700497
 C           -7.758915           -7.137001            0.549566
 C           -7.787133           -8.174860            1.419875
 C           -6.858499           -8.234497            2.530904
 C           -5.942549           -7.254291            2.720271
 C           -5.860597           -6.117398            1.813405
 C           -4.929963           -5.116720            1.982532
 C           -4.855460           -4.010323            1.075039
 C           -3.899702           -2.993967            1.229423
 C           -3.834100           -1.917504            0.330947
 C           -2.862533           -0.874845            0.477691
 C           -2.809934            0.180747           -0.405239
 C           -1.838786            1.252856           -0.258585
 C            1.816953            1.140503           -0.350065
 C            2.351317           -0.188574           -0.594221
 C            3.084199           -0.858449            0.359558
 C            3.625016           -2.158930            0.100345
 C            4.370453           -2.849290            1.068257
 C            4.900917           -4.121150            0.802983
 C            5.658377           -4.837843            1.785384
 C            6.166526           -6.089694            1.520549
 C            6.932058           -6.834717            2.510704
 C            7.417002           -8.069074            2.234189
 H            7.599752           -9.675131            0.772117
 H            6.309456           -8.476133           -0.996589
 H            5.049711           -6.471658           -1.719750
 H            3.769795           -4.489692           -2.428897
 H            2.446638           -2.528902           -3.124062
 H            1.113908           -0.555525           -3.816381
 H            0.208232            1.712972           -3.294919
 H            2.544903            4.015254           -0.982218
 H            2.991048            6.405095           -0.553346
 H            3.440287            8.776571           -0.075914
 H            3.898282           11.155665            0.430038
 H            3.041339           13.439482            0.957650
 H            0.622763           13.862506            1.136685
 H           -1.021198           12.016190            0.797883
 H           -1.471902            9.634143            0.294248
 H           -1.923065            7.263936           -0.200405
 H           -2.373406            4.874232           -0.659516
 H           -2.655005            3.195210           -2.931787
 H           -4.357378            1.400659           -3.262201
 H           -5.392790           -0.716917           -2.505877
 H           -6.428194           -2.816906           -1.746226
 H           -7.445142           -4.934354           -1.011651
 H           -8.450731           -7.077458           -0.289769
 H           -8.501517           -8.989808            1.313857
 H           -6.925897           -9.090775            3.200333
 H           -5.238826           -7.284645            3.551487
 H           -4.225762           -5.148040            2.813782
 H           -3.194370           -3.042377            2.059137
 H           -2.160101           -0.938286            1.308967
 H           -1.140221            1.190262            0.576735
 H            2.022299            1.596046            0.618367
 H            3.269912           -0.408371            1.334314
 H            4.538224           -2.390495            2.042354
 H            5.821896           -4.365203            2.753571
 H            7.096333           -6.360854            3.477875
 H            7.987953           -8.636191            2.967874

