98

 C           -3.024258           -7.569842           -3.254937
 C           -1.960600           -6.883948           -3.960876
 C           -1.561284           -5.647125           -3.578073
 C           -2.185871           -4.972247           -2.448493
 C           -1.787574           -3.720097           -2.036827
 C           -2.414925           -3.069149           -0.924953
 C           -2.014224           -1.793803           -0.497090
 C           -2.639582           -1.163105            0.590077
 C           -2.246923            0.142831            1.029926
 C           -2.855750            0.752907            2.103775
 C           -3.919226            0.059293            2.813919
 C           -4.320918           -1.191403            2.399764
 C           -3.702567           -1.840753            1.283349
 C           -4.103206           -3.116632            0.856506
 C           -3.481658           -3.744609           -0.233762
 C           -3.877737           -5.048204           -0.677395
 C           -3.259209           -5.657305           -1.745968
 C           -3.645077           -6.985743           -2.201976
 C           -4.538088            0.713552            3.957873
 C           -4.145169            1.948583            4.351281
 C           -3.103006            2.653660            3.639462
 C           -2.482608            2.088991            2.568801
 C           -1.434773            2.847583            1.841877
 C           -1.783121            3.674718            0.817421
 C           -0.796545            4.476420            0.121175
 C           -1.147461            5.342495           -0.903300
 C           -0.168923            6.140055           -1.555447
 C           -0.516836            7.041401           -2.597547
 C            0.446169            7.817448           -3.223941
 C            0.109921            8.741276           -4.293318
 C            1.069608            9.485906           -4.899065
 C            2.451477            9.382486           -4.488118
 C            2.814929            8.537967           -3.489577
 C            1.828523            7.713115           -2.813831
 C            2.179943            6.837066           -1.798534
 C            1.202043            6.035708           -1.149813
 C            1.550472            5.136133           -0.106705
 C            0.584993            4.369843            0.528432
 C            0.917410            3.460455            1.606762
 C           -0.039769            2.730841            2.245247
 C            0.333551            1.833847            3.365755
 C            0.089945            2.209969            4.649920
 C            0.473400            1.364978            5.758548
 C            1.091565            0.179333            5.543596
 C            1.381196           -0.280225            4.192934
 C            2.010481           -1.484273            3.965297
 C            2.284260           -1.942767            2.636640
 C            2.918707           -3.171385            2.394271
 C            3.175776           -3.608696            1.085684
 C            3.819823           -4.861588            0.823756
 C            4.068214           -5.281317           -0.463753
 C            4.718495           -6.553947           -0.744848
 C            4.956063           -6.950146           -2.018357
 C            4.570563           -6.114268           -3.137670
 C            3.961609           -4.921347           -2.933373
 C            3.676416           -4.444709           -1.586898
 C            3.053819           -3.238233           -1.357803
 C            2.783398           -2.783159           -0.026234
 C            2.147954           -1.555642            0.216657
 C            1.891497           -1.117870            1.525463
 C            1.245939            0.134185            1.785918
 C            0.990288            0.559007            3.070491
 H           -3.301599           -8.564068           -3.601514
 H           -1.500005           -7.398316           -4.802723
 H           -0.763499           -5.119136           -4.099070
 H           -0.980505           -3.197308           -2.549566
 H           -1.199746           -1.288209           -1.015137
 H           -1.444335            0.646141            0.487956
 H           -5.121830           -1.716180            2.919542
 H           -4.908332           -3.628439            1.382402
 H           -4.684015           -5.550400           -0.143975
 H           -4.447520           -7.487166           -1.662106
 H           -5.322544            0.170216            4.483062
 H           -4.597463            2.447835            5.206911
 H           -2.835289            3.649867            3.989403
 H           -2.823353            3.763256            0.499523
 H           -2.187007            5.424463           -1.220440
 H           -1.561613            7.115552           -2.898334
 H           -0.935963            8.811943           -4.589441
 H            0.829793           10.178506           -5.704382
 H            3.182648           10.002787           -5.004290
 H            3.851676            8.452286           -3.166504
 H            3.219230            6.753414           -1.481566
 H            2.595980            5.058564            0.191345
 H            1.966218            3.383917            1.899252
 H           -0.401254            3.155056            4.879578
 H            0.246183            1.718527            6.763321
 H            1.386547           -0.468108            6.368478
 H            2.311465           -2.117940            4.799202
 H            3.213792           -3.796787            3.236353
 H            4.108709           -5.479593            1.673448
 H            5.002844           -7.170264            0.107487
 H            5.439555           -7.900251           -2.239993
 H            4.788601           -6.480512           -4.139697
 H            3.668161           -4.281575           -3.764601
 H            2.753747           -2.601250           -2.189128
 H            1.848899           -0.933297           -0.625834
 H            0.960166            0.748154            0.930241

