98

 C           -8.393914           -3.738572           -3.077819
 C           -7.056947           -3.231498           -3.112788
 C           -6.694829           -2.173169           -2.323997
 C           -7.652301           -1.556292           -1.449106
 C           -7.302274           -0.457650           -0.620792
 C           -8.228378            0.134601            0.223618
 C           -9.572498           -0.380618            0.254986
 C           -9.927243           -1.451856           -0.549185
 C           -8.981432           -2.060905           -1.414373
 C           -9.329589           -3.172170           -2.254886
 C          -10.554108            0.237024            1.141689
 C          -10.232019            1.279768            1.931562
 C           -8.885266            1.843471            1.938731
 C           -8.575782            2.918619            2.755054
 C           -7.269982            3.475194            2.770633
 C           -6.951381            4.594869            3.610621
 C           -5.689253            5.123091            3.610152
 C           -4.671628            4.562151            2.781672
 C           -4.939672            3.483775            1.972580
 C           -3.847363            2.916161            1.145744
 C           -3.507800            3.590727           -0.092740
 C           -2.479595            3.148013           -0.858398
 C           -1.688339            1.996407           -0.460738
 C           -0.615339            1.548850           -1.215396
 C            0.151283            0.424457           -0.805238
 C            1.253729           -0.042968           -1.569690
 C            1.991973           -1.143731           -1.161966
 C            3.105995           -1.645609           -1.943668
 C            3.807154           -2.740383           -1.539601
 C            4.906773           -3.298832           -2.363235
 C            6.251419           -2.793915           -2.229787
 C            6.594366           -1.774360           -1.302848
 C            7.891590           -1.297174           -1.192416
 C            8.913459           -1.849920           -2.042250
 C            8.595434           -2.847623           -2.948641
 C            7.269159           -3.341314           -3.059889
 C            6.939991           -4.380709           -3.993703
 C            5.656948           -4.846662           -4.086479
 C            4.627700           -4.299739           -3.262652
 C           10.281132           -1.349794           -1.937374
 C           10.611866           -0.384329           -1.057843
 C            9.619130            0.209883           -0.167523
 C            9.983349            1.200007            0.731070
 C            9.026389            1.786238            1.599776
 C            9.384142            2.813159            2.538064
 C            8.437398            3.359918            3.361594
 C            7.078969            2.916531            3.299525
 C            6.707432            1.938935            2.416708
 C            7.676116            1.344129            1.538879
 C            7.316876            0.327955            0.615010
 C            8.253929           -0.242970           -0.232016
 C            3.467685           -3.416149           -0.302049
 C            2.435953           -2.976811            0.461195
 C            1.643034           -1.826562            0.063109
 C            0.569118           -1.379717            0.817253
 C           -0.197961           -0.255793            0.407013
 C           -1.300745            0.211882            1.171225
 C           -2.037905            1.313558            0.764281
 C           -3.150316            1.817628            1.547076
 C           -6.263324            2.911409            1.937763
 C           -6.597828            1.812052            1.103630
 C           -7.875185            1.272784            1.086724
 H           -8.646183           -4.581602           -3.719208
 H           -6.338819           -3.706357           -3.779388
 H           -5.679479           -1.778945           -2.343106
 H           -6.276875           -0.082739           -0.661234
 H          -10.944319           -1.842272           -0.526687
 H          -10.350303           -3.549773           -2.220872
 H          -11.560642           -0.182500            1.137508
 H          -10.966954            1.739147            2.593229
 H           -9.337419            3.354296            3.401326
 H           -7.735389            5.009889            4.242234
 H           -5.434711            5.974396            4.240242
 H           -3.675128            5.003077            2.808986
 H           -4.104074            4.456994           -0.378962
 H           -2.214188            3.644374           -1.791755
 H           -0.341786            2.058631           -2.139131
 H            1.512296            0.478524           -2.491177
 H            3.354701           -1.124832           -2.868612
 H            5.803846           -1.365719           -0.666256
 H            9.365742           -3.269199           -3.593924
 H            7.732716           -4.785722           -4.620875
 H            5.394205           -5.636798           -4.788669
 H            3.614931           -4.689211           -3.365374
 H           11.024250           -1.791316           -2.601994
 H           11.634045           -0.012274           -0.980754
 H           11.016408            1.542995            0.781489
 H           10.421071            3.143133            2.577121
 H            8.696947            4.138970            4.076866
 H            6.352118            3.374071            3.968845
 H            5.675685            1.593830            2.361300
 H            6.275184            0.000146            0.582735
 H            4.065109           -4.281551           -0.015512
 H            2.168902           -3.475532            1.392783
 H            0.295590           -1.889921            1.740730
 H           -1.560125           -0.310420            2.092001
 H           -3.399686            1.296821            2.471829
 H           -5.817361            1.391839            0.462213

