90

 C            6.447343           -4.356160            1.753226
 C            5.434342           -3.698522            1.006319
 C            5.689584           -2.501886            0.379240
 C            6.962462           -1.854028            0.461315
 C            7.972516           -2.540780            1.192132
 C            7.693005           -3.789160            1.834543
 C            9.289224           -2.002693            1.293372
 C            9.608309           -0.813480            0.685265
 C           10.964600           -0.279236            0.779437
 C           11.310125            0.885962            0.197305
 C           10.331455            1.662807           -0.552699
 C            8.993275            1.165876           -0.661465
 C            8.045335            1.924086           -1.387790
 C            8.422914            3.146550           -1.996252
 C            9.721668            3.609028           -1.876771
 C           10.678237            2.869392           -1.155477
 C            6.702052            1.427298           -1.466403
 C            6.324317            0.254577           -0.868226
 C            4.876809           -0.045128           -1.011242
 C            4.435458           -0.684450           -2.238285
 C            3.115820           -0.897678           -2.464351
 C            2.113058           -0.495392           -1.493273
 C            0.760519           -0.700518           -1.713832
 C           -0.206885           -0.300373           -0.752926
 C           -1.595619           -0.509659           -0.965065
 C           -2.529836           -0.118980           -0.018024
 C           -3.949280           -0.343649           -0.210305
 C           -4.851442            0.045469            0.733128
 C           -6.295133           -0.276913            0.600314
 C           -6.631376           -1.492489            1.134540
 C           -7.969146           -2.006181            1.077495
 C           -8.302879           -3.272708            1.617589
 C           -9.600617           -3.744561            1.528715
 C          -10.599173           -2.971431            0.906300
 C          -10.295171           -1.722255            0.370887
 C           -8.958587           -1.214984            0.448334
 C           -8.605927            0.075435           -0.101435
 C           -7.285193            0.577554           -0.035160
 C           -7.008927            1.885897           -0.598031
 C           -5.728713            2.524280           -0.580884
 C           -5.517516            3.760322           -1.144703
 C           -6.582155            4.465517           -1.765683
 C           -7.831068            3.900860           -1.794141
 C           -8.065611            2.612427           -1.215837
 C           -9.383967            2.072204           -1.271856
 C           -9.659463            0.840385           -0.731108
 C          -11.013784            0.296598           -0.792559
 C          -11.317905           -0.910270           -0.275846
 C           -4.410658            0.693040            1.955911
 C           -3.091643            0.916191            2.176191
 C           -2.089762            0.517014            1.202929
 C           -0.737322            0.725827            1.421277
 C            0.229586            0.325886            0.460015
 C            1.618573            0.532876            0.673728
 C            2.553212            0.138063           -0.270956
 C            3.973699            0.351858           -0.072326
 C            7.277060           -0.576664           -0.150014
 C            8.598286           -0.082774           -0.047917
 H            6.221791           -5.301032            2.243602
 H            4.449765           -4.159483            0.934652
 H            4.882417           -2.058119           -0.200129
 H            8.492935           -4.278993            2.388376
 H           10.037205           -2.559252            1.858686
 H           11.687779           -0.869022            1.343746
 H           12.321940            1.284810            0.266337
 H            7.680588            3.715787           -2.553574
 H           10.014558            4.551063           -2.339063
 H           11.694495            3.251369           -1.072097
 H            5.972258            2.028198           -2.014791
 H            5.198902           -0.981880           -2.957338
 H            2.767571           -1.373826           -3.380715
 H            0.419785           -1.174002           -2.634388
 H           -1.918671           -0.987681           -1.889649
 H           -4.269498           -0.832951           -1.130363
 H           -5.872311           -2.113165            1.617473
 H           -7.528160           -3.867699            2.098825
 H           -9.860243           -4.719970            1.938751
 H          -11.614168           -3.360951            0.846346
 H           -4.876704            2.037889           -0.110295
 H           -4.527786            4.215294           -1.120747
 H           -6.391406            5.441853           -2.206721
 H           -8.667731            4.422031           -2.257717
 H          -10.167421            2.658876           -1.752325
 H          -11.770382            0.913373           -1.278729
 H          -12.327624           -1.317406           -0.322671
 H           -5.173879            0.987509            2.676500
 H           -2.743080            1.397833            3.089667
 H           -0.396366            1.200937            2.340994
 H            1.941280            1.010997            1.598472
 H            4.293674            0.837436            0.849917

