90

 C           13.631581           -0.413571            3.292165
 C           14.064213           -0.030098            1.991149
 C           13.162236            0.059904            0.959874
 C           11.776473           -0.227599            1.166608
 C           11.348814           -0.608998            2.464928
 C           12.308531           -0.695537            3.523659
 C            9.971398           -0.902008            2.706857
 C            9.042410           -0.821433            1.694022
 C            7.630889           -1.116736            1.920854
 C            6.720684           -1.032180            0.928615
 C            7.098379           -0.641225           -0.425355
 C            8.474378           -0.352861           -0.690197
 C            8.876882            0.023477           -1.995918
 C            7.909963            0.102344           -3.026720
 C            6.580887           -0.174703           -2.762348
 C            6.164528           -0.539852           -1.461999
 C            4.722098           -0.792212           -1.232923
 C            4.198229           -2.111656           -1.528719
 C            2.882933           -2.386222           -1.342422
 C            1.966515           -1.373896           -0.846787
 C            0.620299           -1.638444           -0.650063
 C           -0.260013           -0.635292           -0.162023
 C           -1.641185           -0.895069            0.044416
 C           -2.490594            0.091800            0.521104
 C           -3.903013           -0.156900            0.734608
 C           -4.722963            0.823395            1.203952
 C           -6.164278            0.567787            1.436353
 C           -6.577607            0.211598            2.740208
 C           -7.904678           -0.071680            3.007830
 C           -8.872627           -0.008244            1.976908
 C          -10.261603           -0.313435            2.222530
 C          -11.179314           -0.249974            1.220808
 C          -10.804314            0.124912           -0.122562
 C           -9.457891            0.426595           -0.387612
 C           -9.045916            0.803583           -1.720048
 C           -9.975913            0.868442           -2.733075
 C          -11.351025            0.567233           -2.487940
 C          -12.311734            0.637590           -3.546809
 C          -13.632578            0.347784           -3.312237
 C          -14.061801           -0.028312           -2.008029
 C          -13.158635           -0.102989           -0.976428
 C          -11.775288            0.193655           -1.186218
 C           -7.636721            1.107446           -1.950070
 C           -6.725337            1.037564           -0.957655
 C           -7.099469            0.654849            0.399630
 C           -8.473420            0.359654            0.667781
 C           -4.199460            2.143080            1.499372
 C           -2.884548            2.418642            1.311212
 C           -1.968071            1.406886            0.814562
 C           -0.621854            1.671798            0.617210
 C            0.258485            0.668821            0.129015
 C            1.639926            0.928343           -0.077239
 C            2.489244           -0.058843           -0.553304
 C            3.902153            0.188963           -0.765522
 C           10.268153            0.320941           -2.238158
 C           11.184919            0.241990           -1.236585
 C           10.806560           -0.142161            0.103215
 C            9.457778           -0.436007            0.365060
 H           14.366635           -0.477648            4.092880
 H           15.118746            0.189400            1.831920
 H           13.492200            0.354180           -0.038018
 H           11.965672           -0.989415            4.514768
 H            9.671792           -1.191149            3.713804
 H            7.341315           -1.410105            2.930410
 H            5.666357           -1.256169            1.105344
 H            8.222826            0.386973           -4.030591
 H            5.836368           -0.109947           -3.557141
 H            4.895036           -2.863484           -1.898768
 H            2.474726           -3.373656           -1.557347
 H            0.217297           -2.627146           -0.868022
 H           -2.027112           -1.889310           -0.179539
 H           -4.285280           -1.152182            0.507203
 H           -5.832134            0.158291            3.535027
 H           -8.215224           -0.349870            4.014185
 H          -10.550937           -0.597747            3.233917
 H          -12.228993           -0.483500            1.411512
 H           -9.679026            1.150894           -3.742745
 H          -11.971664            0.925417           -4.540692
 H          -14.368369            0.399758           -4.113094
 H          -15.114560           -0.254454           -1.846519
 H          -13.485972           -0.391864            0.023862
 H           -7.349926            1.394578           -2.962228
 H           -5.672823            1.267960           -1.136907
 H           -4.896468            2.894276            1.870370
 H           -2.476711            3.406364            1.525748
 H           -0.218965            2.660566            0.835308
 H            2.026053            1.922508            0.146909
 H            4.284865            1.184083           -0.537967
 H           10.559968            0.611863           -3.246974
 H           12.236321            0.469700           -1.424854

