90

 C          -10.631549            0.334139            5.746904
 C           -9.229350            0.090387            5.778545
 C           -8.530263           -0.085267            4.609839
 C           -9.188922           -0.027892            3.341694
 C          -10.587144            0.213307            3.314369
 C          -11.293729            0.393849            4.546308
 C          -11.277353            0.273957            2.064915
 C          -10.605043            0.101273            0.875667
 C          -11.296230            0.154326           -0.409510
 C          -10.637684           -0.018159           -1.574601
 C           -9.199405           -0.258318           -1.606876
 C           -8.482385           -0.311601           -0.371331
 C           -9.180427           -0.139782            0.882105
 C           -8.480668           -0.204256            2.098331
 C           -7.057412           -0.446037            2.064141
 C           -6.390019           -0.599487            0.889306
 C           -7.081162           -0.533314           -0.376797
 C           -6.409518           -0.686335           -1.619956
 C           -4.942600           -0.892923           -1.670984
 C           -4.450835           -2.255305           -1.747966
 C           -3.119331           -2.502357           -1.820816
 C           -2.153637           -1.417101           -1.826131
 C           -0.790844           -1.653622           -1.914026
 C            0.140893           -0.580460           -1.917926
 C            1.539704           -0.809679           -2.015497
 C            2.439497            0.245629           -2.015379
 C            3.870149            0.031176           -2.123780
 C            4.736239            1.081740           -2.126159
 C            6.198338            0.880293           -2.262299
 C            6.999407            0.566525           -1.131019
 C            6.450086            0.459682            0.200159
 C            7.239515            0.154534            1.264566
 C            8.655786           -0.081926            1.111396
 C            9.219117            0.020746           -0.171198
 C           10.632461           -0.209151           -0.364174
 C           11.428101           -0.535514            0.711364
 C           10.877659           -0.646573            2.025102
 C           11.711491           -0.986399            3.138206
 C           11.183292           -1.091795            4.400481
 C            9.794828           -0.862826            4.615956
 C            8.975239           -0.536363            3.563874
 C            9.492763           -0.419315            2.235715
 C           11.179874           -0.086232           -1.712388
 C           10.400594            0.236761           -2.765562
 C            8.969509            0.471123           -2.609246
 C            8.391005            0.354442           -1.307320
 C            8.160482            0.800483           -3.694924
 C            6.781513            1.001218           -3.519820
 C            4.246187            2.441976           -2.010831
 C            2.916418            2.686863           -1.905843
 C            1.950876            1.601701           -1.909264
 C            0.588205            1.837735           -1.816811
 C           -0.343628            0.765017           -1.822229
 C           -1.743203            0.995005           -1.736397
 C           -2.643134           -0.059866           -1.739522
 C           -4.075587            0.156694           -1.662587
 C           -7.126190           -0.642451           -2.811687
 C           -8.514870           -0.432203           -2.808044
 H          -11.163428            0.471075            6.687052
 H           -8.725423            0.046405            6.742647
 H           -7.455229           -0.271815            4.632734
 H          -12.366089            0.579872            4.509618
 H          -12.350933            0.459951            2.074506
 H          -12.370591            0.338883           -0.386704
 H          -11.157691            0.018681           -2.532083
 H           -6.526176           -0.502583            3.016844
 H           -5.313234           -0.780091            0.874739
 H           -5.185065           -3.060643           -1.744826
 H           -2.733956           -3.520259           -1.878579
 H           -0.414466           -2.674104           -1.982486
 H            1.898013           -1.836087           -2.092415
 H            4.226924           -0.995538           -2.207693
 H            5.379837            0.635063            0.326982
 H            6.815170            0.080844            2.268298
 H           12.494660           -0.715075            0.579497
 H           12.771878           -1.159804            2.961148
 H           11.812210           -1.350356            5.250873
 H            9.398288           -0.951501            5.626009
 H            7.910522           -0.361159            3.727459
 H           12.248586           -0.266590           -1.831211
 H           10.813398            0.330867           -3.770237
 H            8.590716            0.902904           -4.690496
 H            6.164078            1.250904           -4.383697
 H            4.980255            3.247536           -2.011305
 H            2.532289            3.702992           -1.816947
 H            0.212122            2.857644           -1.738833
 H           -2.101919            2.021923           -1.668858
 H           -4.433364            1.184704           -1.602635
 H           -6.607658           -0.769035           -3.763006
 H           -9.051127           -0.404278           -3.755840

