74

 C           -8.608457            4.364271           -1.081304
 C           -7.194071            4.353443           -1.344363
 C           -6.479303            3.198343           -1.241366
 C           -7.125773            1.961299           -0.866242
 C           -6.408354            0.762599           -0.745356
 C           -7.049652           -0.430851           -0.382979
 C           -8.462883           -0.422562           -0.142655
 C           -9.179971            0.777719           -0.256213
 C           -8.535788            1.970854           -0.611746
 C           -9.256009            3.218573           -0.729722
 C           -9.123978           -1.657913            0.210356
 C           -8.418590           -2.818035            0.316708
 C           -7.001155           -2.833685            0.088726
 C           -6.334785           -1.686834           -0.243126
 C           -4.869105           -1.721845           -0.464234
 C           -4.390508           -2.104372           -1.778800
 C           -3.060275           -2.175369           -2.032958
 C           -2.081839           -1.871726           -1.002951
 C           -0.718902           -1.950640           -1.242015
 C            0.222879           -1.647925           -0.221391
 C            1.622154           -1.731026           -0.452225
 C            2.531822           -1.431823            0.550655
 C            3.963113           -1.523525            0.333091
 C            4.841004           -1.231775            1.331696
 C            6.306026           -1.349018            1.135887
 C            6.950752           -2.497738            1.502594
 C            8.367036           -2.636057            1.312657
 C            9.093143           -1.625562            0.758987
 C            8.455219           -0.391967            0.360338
 C            9.193626            0.655471           -0.210382
 C            8.572219            1.855228           -0.583205
 C            9.314730            2.944353           -1.176678
 C            8.689278            4.103068           -1.525380
 C            7.276429            4.265492           -1.307718
 C            6.540898            3.261317           -0.754359
 C            7.163552            2.013585           -0.373967
 C            6.424631            0.963282            0.188875
 C            7.043237           -0.240660            0.556445
 C            4.362457           -0.810070            2.634217
 C            3.032308           -0.712113            2.879973
 C            2.054086           -1.024047            1.852505
 C            0.691006           -0.943397            2.090954
 C           -0.250556           -1.251856            1.072194
 C           -1.650046           -1.179227            1.306167
 C           -2.559566           -1.480160            0.303970
 C           -3.991086           -1.418856            0.530836
 H           -9.139971            5.310508           -1.171274
 H           -6.717543            5.290833           -1.626087
 H           -5.408006            3.175013           -1.438302
 H           -5.333167            0.759027           -0.936391
 H          -10.252620            0.781792           -0.065134
 H          -10.326094            3.212218           -0.528116
 H          -10.198756           -1.630010            0.384669
 H           -8.906189           -3.756606            0.577232
 H           -6.471692           -3.780794            0.190238
 H           -5.133513           -2.329698           -2.543525
 H           -2.687815           -2.462954           -3.015890
 H           -0.349180           -2.249277           -2.222866
 H            1.974528           -2.038667           -1.436520
 H            4.310610           -1.837281           -0.651468
 H            6.404280           -3.331742            1.942407
 H            8.836859           -3.569088            1.621408
 H           10.167352           -1.717945            0.604816
 H           10.265094            0.533553           -0.365870
 H           10.383227            2.807691           -1.335939
 H            9.237556            4.929593           -1.975134
 H            6.818047            5.209309           -1.597893
 H            5.470373            3.370289           -0.583709
 H            5.350391            1.084877            0.343011
 H            5.105385           -0.578959            3.397378
 H            2.659819           -0.398252            3.854846
 H            0.321235           -0.641402            3.070792
 H           -2.002442           -0.883468            2.294124
 H           -4.338719           -1.126722            1.521998

