74

 C           -8.529357           -3.184979           -1.686397
 C           -7.136131           -3.028697           -2.005920
 C           -6.431248           -1.965890           -1.527022
 C           -7.061516           -0.972433           -0.686327
 C           -8.451962           -1.126103           -0.376707
 C           -9.164269           -2.268081           -0.904660
 C           -9.095417           -0.178807            0.431316
 C           -8.396434            0.923631            0.941898
 C           -9.051105            1.903688            1.779254
 C           -8.362616            2.970335            2.272594
 C           -6.969410            3.143621            1.962109
 C           -6.318210            2.241303            1.176364
 C           -7.005984            1.088597            0.638776
 C           -6.354545            0.130644           -0.165367
 C           -4.908037            0.282566           -0.457881
 C           -4.524759            1.015247           -1.649762
 C           -3.215459            1.190320           -1.956778
 C           -2.165987            0.654825           -1.106893
 C           -0.823860            0.832659           -1.403373
 C            0.189985            0.307778           -0.557143
 C            1.568810            0.491049           -0.846541
 C            2.549101           -0.017828           -0.008138
 C            3.960819            0.168984           -0.282695
 C            4.908926           -0.330372            0.557358
 C            6.354984           -0.131937            0.291721
 C            7.072000           -1.101887           -0.438290
 C            6.453057           -2.313817           -0.927065
 C            7.167455           -3.227632           -1.641350
 C            8.560054           -3.007157           -1.923757
 C            9.184514           -1.882800           -1.475594
 C            8.461586           -0.888445           -0.714664
 C            9.094165            0.273871           -0.252882
 C            8.385142            1.234509            0.481260
 C            9.028355            2.438563            0.957655
 C            8.330091            3.367375            1.668116
 C            6.937858            3.162016            1.962923
 C            6.297333            2.040042            1.531166
 C            6.995590            1.031939            0.764964
 C            4.525967           -1.069427            1.745303
 C            3.216696           -1.268892            2.037526
 C            2.166960           -0.751086            1.177214
 C            0.824758           -0.939930            1.466934
 C           -0.189121           -0.419696            0.618051
 C           -1.568129           -0.599471            0.909332
 C           -2.548337           -0.078822            0.078245
 C           -3.960266           -0.243642            0.365921
 H           -9.054972           -4.050788           -2.085874
 H           -6.665763           -3.780450           -2.637989
 H           -5.374307           -1.837959           -1.767338
 H          -10.219676           -2.369736           -0.655837
 H          -10.152289           -0.301486            0.666605
 H          -10.107418            1.759515            2.001696
 H           -8.844604            3.712080            2.907481
 H           -6.455001            4.012106            2.370936
 H           -5.261796            2.367743            0.932667
 H           -5.321343            1.413476           -2.278325
 H           -2.911605            1.738163           -2.848558
 H           -0.527247            1.383367           -2.295595
 H            1.847537            1.043711           -1.743654
 H            4.237435            0.722991           -1.179960
 H            5.396389           -2.474723           -0.706038
 H            6.705385           -4.140890           -2.013239
 H            9.093621           -3.760504           -2.501066
 H           10.239169           -1.701684           -1.678128
 H           10.150260            0.433504           -0.468673
 H           10.083994            2.576980            0.728503
 H            8.803271            4.279593            2.028096
 H            6.415408            3.924926            2.538246
 H            5.241783            1.874662            1.754473
 H            5.322593           -1.451165            2.384021
 H            2.913112           -1.821864            2.926210
 H            0.528248           -1.492707            2.357886
 H           -1.846971           -1.155638            1.804222
 H           -4.237262           -0.798753            1.262342

