94

 C           -8.499329            3.662141            3.611066
 C           -7.133814            3.947592            3.219760
 C           -6.457248            3.104940            2.403794
 C           -7.072154            1.886392            1.891413
 C           -8.448846            1.607742            2.277581
 C           -9.125630            2.549518            3.160451
 C           -9.088958            0.478865            1.822292
 C           -8.412874           -0.441592            0.959106
 N           -9.068149           -1.553259            0.522388
 C           -8.398300           -2.406589           -0.295832
 C           -9.043263           -3.594292           -0.777585
 C           -8.374093           -4.463306           -1.606392
 C           -9.007782           -5.677228           -2.106127
 C           -8.343091           -6.528622           -2.922371
 C           -6.976457           -6.255778           -3.323812
 C           -6.337020           -5.143731           -2.890790
 C           -6.998969           -4.188900           -2.010340
 C           -6.355197           -3.058841           -1.565680
 C           -7.025526           -2.134715           -0.695376
 N           -6.372133           -1.027153           -0.257742
 C           -7.038631           -0.173578            0.566666
 C           -6.386162            1.013042            1.065981
 C           -4.976430            1.263745            0.680290
 C           -4.724089            1.965766           -0.563384
 C           -3.453109            2.246652           -0.944720
 C           -2.318343            1.852184           -0.127960
 C           -1.014399            2.140796           -0.499014
 C            0.083388            1.747967            0.313611
 C            1.423392            2.047155           -0.051236
 C            2.486488            1.662198            0.751559
 C            3.859147            1.966656            0.395214
 C            4.888266            1.585993            1.200877
 C            6.293937            1.908669            0.856379
 C            7.013328            1.008354           -0.012597
 N            6.409500           -0.116467           -0.484023
 C            7.123561           -0.930215           -1.303994
 C            6.519664           -2.125551           -1.820627
 C            7.224501           -2.955143           -2.659516
 C            6.630514           -4.171778           -3.199663
 C            7.329347           -4.983511           -4.027607
 C            8.693853           -4.663820           -4.400774
 C            9.297296           -3.547387           -3.928952
 C            8.597763           -2.633616           -3.034053
 C            9.204489           -1.498609           -2.550434
 C            8.494913           -0.612099           -1.673137
 N            9.102642            0.507127           -1.199055
 C            8.386281            1.321599           -0.374472
 C            8.994804            2.509507            0.143500
 C            8.290525            3.349217            0.974583
 C            8.897179            4.564922            1.502461
 C            8.206015            5.396461            2.317500
 C            6.839268            5.093453            2.690833
 C            6.226969            3.977613            2.228753
 C            6.914282            3.045510            1.343205
 C            4.638045            0.853594            2.427417
 C            3.368778            0.547943            2.795269
 C            2.233727            0.940584            1.978138
 C            0.930500            0.640193            2.342648
 C           -0.167495            1.034623            1.531225
 C           -1.508124            0.741875            1.899405
 C           -2.571718            1.136982            1.102339
 C           -3.946163            0.858352            1.472516
 H           -8.995657            4.370339            4.274205
 H           -6.677176            4.859481            3.603758
 H           -5.428241            3.313430            2.101164
 H          -10.153241            2.319290            3.442031
 H          -10.120194            0.249986            2.101008
 H          -10.073235           -3.775604           -0.461872
 H          -10.034957           -5.868803           -1.795308
 H           -8.808476           -7.438485           -3.300732
 H           -6.490216           -6.975752           -3.981331
 H           -5.309699           -4.924525           -3.183247
 H           -5.325995           -2.827612           -1.852505
 H           -5.582616            2.243225           -1.174112
 H           -3.245245            2.772712           -1.876001
 H           -0.813266            2.675522           -1.426980
 H            1.605645            2.586792           -0.980269
 H            4.037086            2.500481           -0.537981
 H            5.490250           -2.341438           -1.522561
 H            5.603839           -4.397654           -2.909826
 H            6.894137           -5.894551           -4.437064
 H            9.208652           -5.352520           -5.070325
 H           10.321964           -3.293531           -4.200869
 H           10.231603           -1.236285           -2.814139
 H           10.027090            2.719171           -0.146092
 H            9.926490            4.775744            1.212048
 H            8.649507            6.309625            2.713922
 H            6.328309            5.792433            3.352491
 H            5.197049            3.739927            2.505452
 H            5.497967            0.553412            3.025306
 H            3.163070           -0.004091            3.711875
 H            0.730426            0.091671            3.262723
 H           -1.690052            0.196615            2.825157
 H           -4.123684            0.313055            2.399023

