96

 C           -7.370824           -3.537671           -1.950608
 C           -8.523261           -2.948279           -1.530461
 C           -8.461070           -1.628807           -0.971229
 C           -9.428548           -0.766324           -0.480849
 C          -10.869901           -0.815221           -0.308634
 C          -11.634102            0.360931           -0.414688
 C          -13.020398            0.306789           -0.262400
 C          -13.652132           -0.913881           -0.001885
 C          -12.893219           -2.083111            0.113030
 C          -11.505423           -2.039467           -0.036692
 O           -8.822660            0.431885           -0.074214
 C           -7.446152            0.302998           -0.303894
 C           -6.673685            1.470024            0.096610
 C           -5.491610            1.309383            0.838957
 C           -4.746822            2.431227            1.209060
 C           -5.180699            3.712427            0.853399
 C           -6.366539            3.874744            0.129316
 C           -7.115424            2.758785           -0.249383
 C           -7.178491           -0.937041           -0.862586
 C           -5.988039           -1.602728           -1.330083
 C           -4.673113           -0.928663           -1.258287
 C           -4.470481            0.272763           -2.045883
 C           -3.278915            0.920023           -2.020308
 C           -2.179605            0.438019           -1.202469
 C           -0.961202            1.096922           -1.152740
 C            0.102222            0.611458           -0.344903
 C            1.356012            1.277258           -0.286620
 C            2.388249            0.791183            0.501328
 C            3.677827            1.451675            0.561655
 C            4.687438            0.948410            1.325695
 C            6.007594            1.613241            1.387086
 C            6.132644            2.871493            1.907366
 C            7.412215            3.535628            1.996814
 C            8.555615            2.937282            1.564541
 C            8.477503            1.619063            1.004605
 C            9.432677            0.748745            0.503868
 C           10.872468            0.783955            0.316390
 C           11.518464            2.002851            0.044989
 C           12.904754            2.031926           -0.121304
 C           13.651775            0.853501           -0.023444
 C           13.009543           -0.361737            0.236799
 C           11.624686           -0.401393            0.405621
 O            8.812484           -0.443807            0.102040
 C            7.439585           -0.303272            0.344962
 C            6.652333           -1.462203           -0.049924
 C            5.468850           -1.288447           -0.787062
 C            4.709039           -2.401639           -1.152187
 C            5.129024           -3.687594           -0.796826
 C            6.315942           -3.863133           -0.077651
 C            7.080008           -2.755648            0.296092
 C            7.188093            0.938444            0.907624
 C            4.483658           -0.251802            2.115096
 C            3.289461           -0.893971            2.095808
 C            2.188640           -0.408803            1.281941
 C            0.969118           -1.065539            1.235055
 C           -0.094723           -0.579571            0.427699
 C           -1.347507           -1.246317            0.368221
 C           -2.378719           -0.762450           -0.422432
 C           -3.665564           -1.427356           -0.488316
 C           -6.097831           -2.862714           -1.849643
 H           -7.373643           -4.537610           -2.382580
 H           -9.491724           -3.436691           -1.610748
 H          -11.135675            1.309916           -0.614048
 H          -13.610664            1.218141           -0.347684
 H          -14.733994           -0.953298            0.113159
 H          -13.384915           -3.031981            0.323171
 H          -10.915438           -2.949329            0.067630
 H           -5.155735            0.310187            1.120023
 H           -3.824351            2.304160            1.775085
 H           -4.595471            4.583934            1.142263
 H           -6.708027            4.873007           -0.139575
 H           -8.041959            2.879774           -0.809755
 H           -5.305155            0.630498           -2.649140
 H           -3.112099            1.822204           -2.608357
 H           -0.802896            2.002820           -1.737588
 H            1.496356            2.182330           -0.876743
 H            3.813918            2.356969           -0.029552
 H            5.261154            3.407202            2.283365
 H            7.427572            4.534893            2.430127
 H            9.528674            3.418020            1.635960
 H           10.937366            2.919785           -0.046090
 H           13.404613            2.976574           -0.331343
 H           14.732498            0.881542           -0.151687
 H           13.590289           -1.280355            0.308726
 H           11.118129           -1.346108            0.604666
 H            5.143566           -0.285712           -1.067905
 H            3.785538           -2.264292           -1.714057
 H            4.532160           -4.552360           -1.081842
 H            6.646434           -4.865108            0.191275
 H            8.007339           -2.887153            0.852803
 H            5.319850           -0.612764            2.714370
 H            3.121799           -1.795296            2.684966
 H            0.810408           -1.971037            1.820264
 H           -1.487830           -2.151666            0.958134
 H           -3.800987           -2.333414            0.101904
 H           -5.218567           -3.391825           -2.216759

