96

 C          -12.775028            1.045912            2.470461
 C          -12.151382            0.747982            1.297193
 C          -10.792870            0.287280            1.331400
 C           -9.881095           -0.083400            0.354138
 C           -9.891215           -0.156881           -1.096432
 C           -9.067515           -1.078342           -1.768042
 C           -9.089127           -1.145490           -3.162086
 C           -9.930165           -0.301114           -3.894463
 C          -10.748406            0.617795           -3.229296
 C          -10.730607            0.695822           -1.835441
 O           -8.679202           -0.480395            0.960272
 C           -8.849843           -0.351769            2.346540
 C           -7.691890           -0.719211            3.145088
 C           -7.869122           -1.384349            4.370544
 C           -6.753744           -1.730122            5.136687
 C           -5.465515           -1.421627            4.692926
 C           -5.283799           -0.758593            3.468340
 C           -3.922322           -0.426967            2.992775
 C           -3.039995            0.307913            3.879766
 C           -1.789756            0.651405            3.481186
 C           -1.297356            0.295464            2.162384
 C           -0.027432            0.650647            1.734567
 C            0.434498            0.296096            0.438800
 C            1.732596            0.657246           -0.012630
 C            2.175686            0.297227           -1.276062
 C            3.502703            0.644619           -1.746110
 C            3.929633            0.269655           -2.984745
 C            5.289730            0.599647           -3.465005
 C            5.467818            1.250086           -4.696890
 C            6.754862            1.557008           -5.144625
 C            7.871268            1.221936           -4.375594
 C            7.698543            0.566330           -3.143828
 C            8.859122            0.209637           -2.346151
 C           10.170651           -0.146463           -2.620652
 C           10.911174           -0.334205           -3.835035
 C           12.216032           -0.715627           -3.756518
 C           12.865840           -0.935951           -2.481922
 C           12.199756           -0.775647           -1.305038
 C           10.823143           -0.373026           -1.336093
 C            9.869332           -0.142404           -0.355205
 C            9.846743           -0.188147            1.095997
 C            8.637338           -0.405527            1.781377
 C            8.626223           -0.461789            3.175786
 C            9.815088           -0.303247            3.896088
 C           11.017794           -0.080649            3.217954
 C           11.038560           -0.018503            1.823223
 O            8.652265            0.209751           -0.958437
 C            6.405875            0.257535           -2.689260
 C            3.051847           -0.477586           -3.866214
 C            1.801291           -0.819123           -3.468562
 C            1.304981           -0.451692           -2.153947
 C            0.034472           -0.803552           -1.727763
 C           -0.429177           -0.444697           -0.432870
 C           -1.727656           -0.803016            0.016565
 C           -2.170139           -0.446130            1.281829
 C           -3.498026           -0.791016            1.749692
 C           -6.398831           -0.408655            2.694008
 C          -10.124406            0.119759            2.617341
 C          -10.818213            0.458221            3.826960
 C          -12.100151            0.909676            3.744072
 H          -13.805938            1.396630            2.485367
 H          -12.648403            0.838482            0.333891
 H           -8.416901           -1.737512           -1.192364
 H           -8.450544           -1.859193           -3.680593
 H           -9.948035           -0.358625           -4.981245
 H          -11.400492            1.277248           -3.800180
 H          -11.359568            1.421258           -1.320836
 H           -8.871280           -1.638413            4.713611
 H           -6.889114           -2.247896            6.085923
 H           -4.599917           -1.703801            5.291132
 H           -3.418026            0.579459            4.865087
 H           -1.119196            1.206818            4.136746
 H            0.636446            1.211587            2.391982
 H            2.380231            1.225390            0.654883
 H            4.144205            1.217146           -1.075646
 H            4.601000            1.523432           -5.297309
 H            6.888805            2.065222           -6.099307
 H            8.871715            1.477346           -4.722644
 H           10.406197           -0.175978           -4.785279
 H           12.810568           -0.871747           -4.655370
 H           13.911147           -1.240472           -2.499047
 H           12.671670           -0.948706           -0.340107
 H            7.713561           -0.529090            1.215633
 H            7.688911           -0.631255            3.704018
 H            9.803567           -0.351600            4.983457
 H           11.942418            0.047167            3.779225
 H           11.975196            0.169269            1.299132
 H            6.277546           -0.255386           -1.734895
 H            3.434554           -0.758597           -4.847044
 H            1.133722           -1.381878           -4.120752
 H           -0.629518           -1.365204           -2.384412
 H           -2.377689           -1.365907           -0.652793
 H           -4.143869           -1.351860            1.073826
 H           -6.269546            0.112479            1.743777
 H          -10.295948            0.353676            4.775195
 H          -12.658758            1.183377            4.637891

