90

 C          -17.918316           -0.164133           -1.416315
 C          -17.032554            0.250094           -0.482520
 C          -15.598285            0.170374           -0.743374
 N          -14.729802            0.587267            0.169073
 C          -13.368254            0.486312           -0.126967
 C          -12.429317            0.922298            0.820850
 C          -11.060880            0.810358            0.531367
 N          -10.128532            1.246089            1.476770
 C           -8.841019            1.122443            1.183502
 C           -7.823991            1.570927            2.131101
 C           -6.511348            1.446121            1.837545
 C           -6.066470            0.858671            0.577638
 C           -4.610744            0.754176            0.332454
 C           -4.077724            1.400714           -0.851909
 C           -2.756931            1.315848           -1.145613
 C           -1.843331            0.581651           -0.288132
 C           -0.493673            0.477031           -0.583186
 C            0.389335           -0.236071            0.271481
 C            1.775107           -0.343053           -0.019721
 C            2.631886           -1.026848            0.829490
 C            4.051302           -1.127547            0.554353
 C            4.889174           -1.778879            1.410427
 C            6.342366           -1.845904            1.140639
 C            6.989898           -3.154165            1.142116
 C            8.308551           -3.288293            0.879799
 C            9.130031           -2.117105            0.584088
 N           10.420971           -2.254750            0.312128
 C           11.157639           -1.102001            0.025364
 C           12.522899           -1.220428           -0.277280
 C           13.262758           -0.065224           -0.574990
 N           14.619747           -0.187595           -0.884325
 C           15.296964            0.917756           -1.167371
 C           16.716906            0.844369           -1.499580
 C           17.408308            1.970137           -1.787102
 C           16.769073            3.275862           -1.778102
 C           15.457774            3.417985           -1.480728
 C           14.645940            2.248176           -1.157141
 N           13.359425            2.387726           -0.863626
 C           12.625435            1.236932           -0.564017
 C           11.261552            1.356008           -0.255330
 C           10.519988            0.200246            0.035055
 N            9.159228            0.320563            0.326921
 C            8.477531           -0.787815            0.590187
 C            7.053305           -0.717007            0.883577
 C            4.367141           -2.403879            2.610292
 C            3.043223           -2.338809            2.900786
 C            2.112684           -1.644562            2.027791
 C            0.759725           -1.553473            2.317242
 C           -0.129107           -0.854591            1.456059
 C           -1.517364           -0.748722            1.742026
 C           -2.370092           -0.050411            0.900118
 C           -3.790273            0.064624            1.173592
 C           -6.961240            0.424270           -0.346640
 C           -8.391804            0.538181           -0.100983
 N           -9.259979            0.125800           -1.016577
 C          -10.621856            0.250847           -0.732228
 C          -11.560841           -0.174786           -1.684327
 C          -12.929523           -0.063306           -1.394764
 N          -13.862665           -0.489701           -2.343166
 C          -15.150539           -0.381954           -2.042641
 C          -16.166395           -0.809991           -2.999914
 C          -17.478835           -0.701037           -2.693929
 H          -18.993963           -0.108879           -1.241004
 H          -17.336128            0.653919            0.486163
 H          -12.760673            1.344393            1.776161
 H           -8.180338            2.005953            3.068320
 H           -5.738464            1.787406            2.529892
 H           -4.770158            1.953381           -1.487438
 H           -2.342278            1.795227           -2.032818
 H           -0.089368            0.945385           -1.480646
 H            2.159790            0.127686           -0.924701
 H            4.423690           -0.664553           -0.360595
 H            6.362405           -4.022962            1.353263
 H            8.811644           -4.258664            0.871551
 H           13.005694           -2.204045           -0.283117
 H           17.172061           -0.148788           -1.501865
 H           18.470147            1.935139           -2.036318
 H           17.391588            4.138149           -2.022625
 H           14.953795            4.387282           -1.468054
 H           10.780307            2.340288           -0.243250
 H            6.598048            0.277426            0.886678
 H            5.069582           -2.912813            3.270196
 H            2.639079           -2.801546            3.801473
 H            0.358290           -2.016153            3.218640
 H           -1.905722           -1.228741            2.640208
 H           -4.177217           -0.429215            2.065186
 H           -6.654853           -0.026892           -1.294710
 H          -11.229531           -0.590792           -2.642358
 H          -15.809525           -1.211715           -3.951262
 H          -18.252382           -1.013991           -3.397004

