94

 C          -11.519349           -4.021693           -2.405826
 C          -12.666177           -3.493643           -1.690260
 C          -12.543575           -2.432458           -0.860682
 C          -11.243948           -1.790778           -0.666406
 N          -11.164578           -0.749187            0.158156
 C           -9.929254           -0.130799            0.349223
 C           -9.866232            0.969341            1.222803
 C           -8.648080            1.621974            1.446172
 C           -8.520731            2.749525            2.321236
 C           -7.299601            3.354939            2.504780
 C           -7.117694            4.500988            3.377784
 C           -5.897830            5.068897            3.528930
 C           -4.743588            4.548905            2.828992
 C           -4.834375            3.474859            2.000058
 C           -3.632179            2.951305            1.314684
 C           -2.907724            3.840243            0.425413
 C           -1.779643            3.420735           -0.200129
 C           -1.263068            2.078758            0.004055
 C           -0.106315            1.635840           -0.617696
 C            0.378947            0.316878           -0.406115
 C            1.561892           -0.149738           -1.038282
 C            2.025164           -1.439322           -0.824950
 C            3.228632           -1.928624           -1.467829
 C            3.670835           -3.199126           -1.252570
 C            4.878584           -3.719304           -1.930404
 C            4.806086           -4.814085           -2.733636
 C            5.968700           -5.329157           -3.423358
 C            7.178264           -4.735384           -3.289122
 C            7.340770           -3.565182           -2.444861
 C            8.550028           -2.930842           -2.280569
 C            8.657030           -1.778961           -1.434936
 C            9.861234           -1.093599           -1.234750
 C            9.903158            0.030679           -0.391200
 N           11.124572            0.682817           -0.224412
 C           11.183724            1.748200            0.570860
 C           12.468777            2.425671            0.738711
 C           12.571093            3.511329            1.538765
 C           11.416378            4.031009            2.247826
 C           10.201551            3.443945            2.129043
 C           10.017419            2.273677            1.286639
 C            8.810202            1.636607            1.127149
 C            8.705256            0.485107            0.276903
 C            7.501879           -0.199876            0.076069
 C            7.458689           -1.323144           -0.771803
 N            6.236627           -1.968411           -0.948512
 C            6.169105           -3.034739           -1.741561
 C            2.947917           -4.086485           -0.360673
 C            1.818550           -3.667266            0.262917
 C            1.300233           -2.326588            0.055577
 C            0.143522           -1.883243            0.677329
 C           -0.342108           -0.564890            0.464312
 C           -1.526382           -0.099154            1.094980
 C           -1.989956            1.190104            0.881846
 C           -3.194429            1.678524            1.523957
 C           -6.136289            2.818551            1.791861
 N           -6.221944            1.772804            0.973578
 C           -7.456624            1.157447            0.776602
 C           -7.520694            0.057316           -0.099758
 C           -8.738307           -0.594615           -0.324651
 C           -8.865018           -1.720102           -1.206122
 C          -10.085859           -2.324086           -1.389550
 C          -10.291906           -3.466675           -2.264217
 H          -11.685726           -4.878140           -3.058283
 H          -13.627456           -3.983880           -1.847022
 H          -13.387307           -2.012767           -0.309327
 H          -10.779652            1.303630            1.719987
 H           -9.412501            3.113318            2.834279
 H           -7.995537            4.879842            3.900566
 H           -5.744828            5.928492            4.181249
 H           -3.786419            5.046358            2.997117
 H           -3.307214            4.841427            0.269839
 H           -1.229947            4.074684           -0.876451
 H            0.448857            2.297965           -1.281771
 H            2.106260            0.525544           -1.698123
 H            3.775338           -1.243415           -2.117063
 H            3.858051           -5.332696           -2.888367
 H            5.830578           -6.206969           -4.054325
 H            8.061613           -5.110590           -3.805130
 H            9.447239           -3.289391           -2.787678
 H           10.779487           -1.420355           -1.727895
 H           13.318468            2.011517            0.192404
 H           13.521279            4.028514            1.675624
 H           11.566495            4.908160            2.876398
 H            9.327881            3.825961            2.657012
 H            7.912516            1.988399            1.638506
 H            6.583507            0.124049            0.572166
 H            3.348863           -5.086545           -0.201470
 H            1.269427           -4.320493            0.940340
 H           -0.411100           -2.544812            1.342330
 H           -2.071172           -0.775441            1.753350
 H           -3.744079            0.991643            2.168644
 H           -6.607388           -0.274845           -0.599651
 H           -7.972905           -2.079128           -1.722089
 H           -9.424191           -3.854955           -2.797343

