94

 C          -13.264827            2.205408            3.456913
 C          -13.164940            1.889907            2.143534
 C          -11.915855            1.396386            1.587806
 C          -11.757445            1.061738            0.264557
 C          -10.493305            0.580224           -0.214085
 C          -10.277612            0.226483           -1.550475
 C           -9.015690           -0.237879           -1.965543
 N           -8.843825           -0.580672           -3.305409
 C           -7.653714           -1.015268           -3.716022
 C           -7.494588           -1.375810           -5.123360
 C           -6.305447           -1.827608           -5.582991
 C           -5.161152           -1.954899           -4.704687
 C           -5.243765           -1.623917           -3.388710
 C           -4.053739           -1.726606           -2.510025
 C           -3.650483           -3.042237           -2.053261
 C           -2.560756           -3.189315           -1.259017
 C           -1.769464           -2.042398           -0.847898
 C           -0.648661           -2.176422           -0.043303
 C            0.114212           -1.042167            0.345895
 C            1.265333           -1.166866            1.169360
 C            1.999703           -0.052605            1.545932
 C            3.169872           -0.162777            2.396226
 C            3.874564            0.943083            2.761862
 C            5.053583            0.839958            3.655873
 C            6.374794            0.647311            3.065341
 C            6.607886            0.581256            1.711931
 C            7.936934            0.380493            1.211570
 C            8.225500            0.302939           -0.156206
 C            9.548737            0.103219           -0.590691
 N            9.789691            0.033911           -1.962590
 C           11.035998           -0.153220           -2.390296
 C           11.281716           -0.223470           -3.830431
 C           12.534976           -0.411193           -4.303296
 C           13.664340           -0.548082           -3.401983
 C           13.495724           -0.491736           -2.059274
 C           12.177311           -0.291894           -1.480865
 C           11.948017           -0.225827           -0.127680
 C           10.618169           -0.024085            0.372067
 C           10.329831            0.053012            1.738955
 C            9.006552            0.253934            2.173441
 N            8.764752            0.327258            3.543991
 C            7.518058            0.514702            3.973074
 C            7.285441            0.592273            5.413921
 C            6.036419            0.786650            5.895028
 C            4.901380            0.912447            5.004706
 C            3.474798            2.258471            2.301564
 C            2.385941            2.405826            1.506163
 C            1.595219            1.259075            1.093314
 C            0.474381            1.393230            0.288855
 C           -0.287679            0.258909           -0.102066
 C           -1.438055            0.383247           -0.926491
 C           -2.173246           -0.731023           -1.301824
 C           -3.346109           -0.620945           -2.147953
 C           -6.502009           -1.149151           -2.819359
 C           -6.669085           -0.823938           -1.493955
 C           -7.935366           -0.352194           -1.014323
 C           -8.151774           -0.001224            0.323581
 C           -9.413064            0.464083            0.737993
 N           -9.581744            0.806059            2.079475
 C          -10.768185            1.249481            2.487905
 C          -10.937743            1.607469            3.895914
 C          -12.128824            2.061216            4.348624
 H          -14.196174            2.575672            3.884351
 H          -14.010487            1.993982            1.463917
 H          -12.581168            1.153786           -0.445098
 H          -11.080787            0.305505           -2.286396
 H           -8.370985           -1.261828           -5.764968
 H           -6.168356           -2.103779           -6.629425
 H           -4.228020           -2.315827           -5.138262
 H           -4.249655           -3.896368           -2.368381
 H           -2.245981           -4.172029           -0.907177
 H           -0.335789           -3.161788            0.302586
 H            1.564770           -2.159818            1.504811
 H            3.460893           -1.157152            2.735963
 H            5.789485            0.679210            0.993235
 H            7.431353            0.395547           -0.901279
 H           10.413403           -0.117562           -4.484053
 H           12.735600           -0.465351           -5.373807
 H           14.647731           -0.697196           -3.846787
 H           14.335502           -0.593101           -1.372059
 H           12.763968           -0.323805            0.590200
 H           11.123095           -0.040861            2.483942
 H            8.158198            0.486251            6.061870
 H            5.843259            0.849456            6.966841
 H            3.919125            1.061427            5.454277
 H            4.073131            3.112475            2.619014
 H            2.070882            3.388752            1.155144
 H            0.160153            2.378787           -0.055325
 H           -1.736501            1.375835           -1.264006
 H           -3.637549            0.373202           -2.488302
 H           -5.844514           -0.916605           -0.781413
 H           -7.348338           -0.082543            1.060066
 H          -10.066006            1.488894            4.542854
 H          -12.272423            2.332403            5.395067

