96

 C           -7.041046           -0.604373            6.435829
 C           -8.472972           -0.818818            6.342821
 C           -9.127246           -0.677841            5.167075
 C           -8.397794           -0.308621            3.954891
 N           -9.072528           -0.178494            2.814399
 C           -8.381176            0.166034            1.652782
 C           -9.111261            0.300458            0.461227
 C           -8.465455            0.645604           -0.734404
 C           -9.202472            0.784536           -1.955734
 C           -8.579025            1.126514           -3.134123
 C           -9.312506            1.261959           -4.385142
 C           -8.677671            1.601873           -5.532686
 C           -7.249051            1.845289           -5.544782
 C           -6.518706            1.732113           -4.409235
 C           -7.144622            1.361010           -3.147560
 C           -6.417905            1.227738           -1.985441
 C           -7.041779            0.863187           -0.747598
 C           -6.306850            0.715548            0.449504
 C           -4.837492            0.921343            0.443404
 C           -4.340666            2.251653            0.739089
 C           -3.007732            2.500455            0.748094
 C           -2.045794            1.449429            0.464802
 C           -0.680481            1.687941            0.471108
 C            0.246434            0.648484            0.188713
 C            1.648032            0.881667            0.187933
 C            2.542814           -0.139163           -0.094176
 C            3.976112            0.085179           -0.110064
 C            4.837541           -0.929203           -0.396433
 C            6.305337           -0.715929           -0.435688
 C            7.076904           -0.900358            0.732549
 C            6.492621           -1.307343            1.976571
 C            7.255619           -1.477048            3.110333
 C            6.670508           -1.891519            4.378120
 C            7.436509           -2.040856            5.485658
 C            8.863718           -1.793691            5.436851
 C            9.461466           -1.413807            4.281983
 C            8.688603           -1.238267            3.059950
 C            9.274174           -0.854796            1.875034
 C            8.499000           -0.676962            0.682641
 C            9.106558           -0.288499           -0.519566
 C            8.339590           -0.115847           -1.682821
 N            8.993453            0.272507           -2.852184
 C            8.283262            0.439352           -3.966154
 C            8.973341            0.855383           -5.186171
 C            8.282399            1.034268           -6.335490
 C            6.849309            0.815201           -6.392005
 C            6.160053            0.428086           -5.291732
 C            6.836391            0.225747           -4.021676
 C            6.185921           -0.153195           -2.870841
 C            6.913116           -0.335687           -1.648699
 C            4.341275           -2.261455           -0.684024
 C            3.009036           -2.513843           -0.678147
 C            2.047096           -1.464786           -0.387528
 C            0.682115           -1.704671           -0.388017
 C           -0.244935           -0.665517           -0.104541
 C           -1.646527           -0.897953           -0.106439
 C           -2.541673            0.124313            0.169615
 C           -3.975526           -0.096494            0.171132
 C           -6.953164            0.379432            1.655217
 C           -6.264582            0.235960            2.904707
 C           -6.952071           -0.099456            4.047464
 C           -6.316306           -0.259894            5.344183
 H           -6.577098           -0.730752            7.413173
 H           -8.999986           -1.097206            7.255684
 H          -10.203673           -0.830021            5.067116
 H          -10.190501            0.131954            0.481545
 H          -10.278110            0.609667           -1.926561
 H          -10.385886            1.077543           -4.359586
 H           -9.214821            1.702377           -6.474911
 H           -6.791745            2.120064           -6.494243
 H           -5.444373            1.913627           -4.401151
 H           -5.339614            1.401672           -1.989121
 H           -5.073528            3.031483            0.947714
 H           -2.619445            3.495149            0.967141
 H           -0.298205            2.684163            0.693880
 H            2.012386            1.883944            0.413508
 H            4.337546            1.089774            0.112305
 H            5.415205           -1.483596            2.007932
 H            5.596710           -2.075132            4.398028
 H            7.009700           -2.348498            6.439206
 H            9.430594           -1.924605            6.357732
 H           10.533252           -1.225873            4.228779
 H           10.348010           -0.675530            1.818163
 H           10.184158           -0.115038           -0.567377
 H           10.051619            1.010135           -5.113917
 H            8.779433            1.347679           -7.253832
 H            6.354919            0.973420           -7.349561
 H            5.084154            0.256932           -5.320159
 H            5.106174           -0.322381           -2.866623
 H            5.073714           -3.039631           -0.900174
 H            2.621244           -3.509889           -0.891652
 H            0.299982           -2.701399           -0.608561
 H           -2.010892           -1.900386           -0.331143
 H           -4.337067           -1.100502           -0.053512
 H           -5.184246            0.399681            2.927506
 H           -5.240804           -0.092803            5.399794

