96

 C            7.715089           -6.648521           -1.320130
 C            6.298303           -6.512282           -1.036070
 C            5.775933           -5.331328           -0.633648
 C            6.634014           -4.156503           -0.478544
 N            6.082546           -3.008834           -0.093152
 C            6.889166           -1.881450            0.061108
 C            8.310675           -1.942681           -0.182970
 C            8.869568           -3.195982           -0.601263
 C            8.065205           -4.298612           -0.756860
 C            8.557939           -5.596878           -1.185099
 C            9.092065           -0.795206           -0.010848
 C            8.513055            0.417160            0.398685
 C            9.311649            1.593524            0.573454
 C            8.751387            2.786159            0.972758
 C            9.546876            3.993496            1.146679
 C            8.972515            5.156198            1.539175
 C            7.548929            5.227852            1.800098
 C            6.762856            4.133969            1.654863
 C            7.322804            2.858497            1.229908
 C            6.538789            1.738213            1.066721
 C            7.096515            0.487322            0.644370
 C            6.297012           -0.663157            0.464828
 C            4.834319           -0.597809            0.700499
 C            4.354515           -0.837896            2.048419
 C            3.028697           -0.772172            2.326225
 C            2.058103           -0.465143            1.290064
 C            0.700422           -0.389836            1.559164
 C           -0.236342           -0.097449            0.531363
 C           -1.630408           -0.019343            0.794502
 C           -2.535708            0.263417           -0.217133
 C           -3.962022            0.339752            0.034561
 C           -4.835200            0.614025           -0.974346
 C           -6.297506            0.667783           -0.735580
 C           -7.032483           -0.526087           -0.559147
 C           -6.414916           -1.816596           -0.646006
 C           -7.135455           -2.975527           -0.462408
 C           -6.512928           -4.289264           -0.548972
 C           -7.235990           -5.418279           -0.354101
 C           -8.652353           -5.347709           -0.056010
 C           -9.283587           -4.151840            0.029343
 C           -8.557783           -2.905661           -0.172676
 C           -9.177014           -1.678293           -0.097881
 C           -8.445559           -0.461834           -0.291941
 C           -9.087738            0.785143           -0.222647
 C           -8.373876            1.972483           -0.416678
 C           -9.000773            3.261356           -0.357688
 C           -8.262848            4.403186           -0.555347
 C           -8.826911            5.741345           -0.503712
 C           -8.048093            6.830540           -0.708341
 C           -6.631030            6.693525           -0.990178
 C           -6.044587            5.476129           -1.052495
 C           -6.831308            4.262744           -0.831672
 N           -6.218189            3.083290           -0.889967
 C           -6.956191            1.918049           -0.683206
 C           -4.354857            0.852831           -2.322398
 C           -3.029156            0.786504           -2.600234
 C           -2.057666            0.484708           -1.563386
 C           -0.699982            0.410340           -1.832134
 C            0.237219            0.121058           -0.803606
 C            1.631331            0.044777           -1.066461
 C            2.536652           -0.239584           -0.055159
 C            3.963111           -0.317729           -0.307448
 H            8.070119           -7.625994           -1.644009
 H            5.673458           -7.397193           -1.158895
 H            4.715021           -5.197576           -0.410907
 H            9.941961           -3.248220           -0.791399
 H            9.623870           -5.685859           -1.392135
 H           10.164993           -0.842135           -0.197335
 H           10.381521            1.521425            0.379270
 H           10.615388            3.923396            0.947597
 H            9.556849            6.066003            1.670181
 H            7.140573            6.187229            2.114439
 H            5.690791            4.171771            1.848146
 H            5.463700            1.784138            1.258859
 H            5.091079           -1.082605            2.812947
 H            2.652415           -0.953344            3.332292
 H            0.331753           -0.557715            2.570503
 H           -1.981116           -0.185368            1.812450
 H           -4.308434            0.177574            1.054794
 H           -5.345741           -1.863103           -0.868948
 H           -5.447141           -4.325559           -0.774772
 H           -6.781003           -6.405831           -0.414612
 H           -9.184227           -6.286104            0.094782
 H          -10.347568           -4.082565            0.251592
 H          -10.243989           -1.607851            0.112369
 H          -10.157192            0.828142           -0.016017
 H          -10.070788            3.309198           -0.153302
 H           -9.892486            5.829313           -0.294278
 H           -8.456917            7.839373           -0.668760
 H           -6.059293            7.608099           -1.149497
 H           -4.981453            5.340914           -1.262875
 H           -5.092063            1.098768           -3.086223
 H           -2.653771            0.963200           -3.607423
 H           -0.331495            0.575739           -2.844013
 H            1.982270            0.212540           -2.084160
 H            4.310413           -0.155791           -1.327405

