96

 C          -10.088853           -1.499514            4.758709
 C          -11.357175           -1.104484            4.175065
 C          -11.442315           -0.721756            2.880336
 C          -10.249424           -0.696356            2.034469
 N          -10.372896           -0.314434            0.764644
 C           -9.237341           -0.283277           -0.045383
 C           -9.371648            0.119707           -1.383955
 C           -8.253359            0.171120           -2.230251
 C           -8.382961            0.578789           -3.596690
 C           -7.292276            0.629400           -4.433936
 C           -7.421054            1.042503           -5.825104
 C           -6.343526            1.086058           -6.644558
 C           -5.030747            0.719966           -6.154202
 C           -4.855514            0.333846           -4.867587
 C           -5.974588            0.269472           -3.936870
 C           -5.821398           -0.118301           -2.616824
 C           -4.480113           -0.470816           -2.089160
 C           -4.053117           -1.854221           -2.181167
 C           -2.830905           -2.227831           -1.727467
 C           -1.921190           -1.261598           -1.136156
 C           -0.669513           -1.626974           -0.666107
 C            0.206867           -0.666681           -0.091539
 C            1.490307           -1.029746            0.397736
 C            2.336334           -0.084340            0.957521
 C            3.644783           -0.441881            1.471373
 C            4.457053            0.497864            2.028774
 C            5.782197            0.139132            2.592016
 C            5.896864           -0.224885            3.922990
 C            4.753434           -0.258921            4.825302
 C            4.890503           -0.622916            6.122966
 C            6.185585           -0.994634            6.654262
 C            7.284434           -0.978609            5.862566
 C            7.196554           -0.590515            4.461081
 C            8.308845           -0.568677            3.651502
 C            8.218951           -0.186909            2.274533
 C            9.359548           -0.166058            1.457222
 C            9.264993            0.210170            0.107668
 N           10.421917            0.210558           -0.672119
 C           10.336726            0.565932           -1.952668
 C           11.551926            0.558367           -2.766571
 C           11.505815            0.913373           -4.071032
 C           10.258254            1.310386           -4.696589
 C            9.102222            1.336051           -3.990657
 C            9.077350            0.964954           -2.585823
 C            7.933413            0.967894           -1.822600
 C            7.983642            0.584392           -0.442361
 C            6.849552            0.558189            0.380016
 C            6.936282            0.177281            1.729837
 C            4.036183            1.884052            2.106170
 C            2.820205            2.260280            1.638120
 C            1.911386            1.294329            1.045401
 C            0.661249            1.660376            0.571567
 C           -0.215438            0.699984           -0.001818
 C           -1.500818            1.062143           -0.486879
 C           -2.348386            0.116082           -1.042721
 C           -3.663670            0.470608           -1.540908
 C           -6.952798           -0.188307           -1.726627
 C           -6.826111           -0.595951           -0.387923
 C           -7.937766           -0.653543            0.462887
 C           -7.846059           -1.066116            1.832461
 C           -8.969194           -1.093736            2.625438
 C           -8.952072           -1.495675            4.021845
 H          -10.089395           -1.797148            5.806555
 H          -12.236938           -1.128288            4.818929
 H          -12.382211           -0.419865            2.414014
 H          -10.361222            0.393515           -1.756660
 H           -9.375258            0.849033           -3.959004
 H           -8.416266            1.314050           -6.175692
 H           -6.428156            1.393967           -7.685780
 H           -4.197546            0.766057           -6.854076
 H           -3.870096            0.056920           -4.488502
 H           -4.745081           -2.570175           -2.625108
 H           -2.494714           -3.262655           -1.793948
 H           -0.338968           -2.663586           -0.731847
 H            1.802393           -2.071814            0.328657
 H            3.952216           -1.485838            1.402736
 H            3.781293            0.021619            4.415789
 H            4.038555           -0.646667            6.801043
 H            6.239465           -1.284281            7.702723
 H            8.266920           -1.254960            6.243952
 H            9.288218           -0.843150            4.044560
 H           10.335628           -0.443688            1.861486
 H           12.475136            0.255248           -2.268667
 H           12.402270            0.912291           -4.691917
 H           10.290167            1.584590           -5.750346
 H            8.158929            1.632389           -4.448798
 H            6.972002            1.259250           -2.248072
 H            5.880380            0.839003           -0.039202
 H            4.727096            2.599802            2.552298
 H            2.488069            3.297013            1.694748
 H            0.331755            2.697500            0.634793
 H           -1.814004            2.103751           -0.415570
 H           -3.974784            1.512906           -1.463966
 H           -5.843149           -0.873443            0.000433
 H           -6.870289           -1.354970            2.225824
 H           -7.993465           -1.790570            4.448190

