96

 C           10.970499            6.663948            0.946472
 C           11.257549            5.403927            1.352831
 C           10.333179            4.305824            1.104637
 C           10.605412            3.018404            1.508913
 C            9.687045            1.948565            1.252172
 C            9.961730            0.634486            1.663246
 C            9.058474           -0.404384            1.402152
 C            9.293980           -1.759198            1.799995
 C            8.371691           -2.739782            1.516942
 C            8.569695           -4.127686            1.894189
 C            7.640988           -5.065080            1.591148
 C            6.424128           -4.706356            0.896149
 C            6.165003           -3.425785            0.516393
 C            4.896249           -3.095935           -0.172206
 C            4.948329           -2.502659           -1.495027
 C            3.805485           -2.236509           -2.175473
 C            2.502462           -2.525906           -1.602821
 C            1.325523           -2.264994           -2.286933
 C            0.059575           -2.548516           -1.706223
 C           -1.153163           -2.285979           -2.398352
 C           -2.382883           -2.565816           -1.821113
 C           -3.628406           -2.317276           -2.520755
 C           -4.829134           -2.599612           -1.940261
 C           -6.094486           -2.397964           -2.682855
 C           -7.102009           -1.450078           -2.179452
 N           -6.882886           -0.797452           -1.040262
 C           -7.834169            0.111757           -0.579073
 C           -7.581862            0.800025            0.621029
 C           -8.509820            1.726889            1.117877
 C           -8.271976            2.445008            2.335877
 C           -9.188428            3.348803            2.823584
 C           -8.960612            4.082714            4.061238
 C           -9.876317            4.964192            4.529448
 C          -11.110095            5.203622            3.807735
 C          -11.372089            4.551615            2.649639
 C          -10.425983            3.591107            2.097822
 C          -10.672797            2.917410            0.923197
 C           -9.733125            1.971724            0.396769
 C           -9.981519            1.283685           -0.801295
 C           -9.056669            0.359018           -1.304828
 C           -9.264729           -0.365368           -2.521662
 C           -8.320536           -1.259068           -2.971419
 C           -8.489031           -2.020291           -4.196092
 C           -7.537596           -2.893091           -4.603769
 C           -6.324794           -3.079366           -3.837477
 C           -4.884438           -3.138525           -0.594764
 C           -3.742188           -3.396129            0.090299
 C           -2.438112           -3.129423           -0.491362
 C           -1.261087           -3.393349            0.191895
 C            0.005213           -3.113545           -0.390062
 C            1.218456           -3.378558            0.300708
 C            2.448084           -3.098851           -0.277040
 C            3.694961           -3.372489            0.410914
 C            7.147244           -2.366614            0.802563
 N            6.902143           -1.117166            0.415071
 C            7.830958           -0.116924            0.700090
 C            7.551538            1.198253            0.288922
 C            8.458378            2.234566            0.555887
 C            8.193780            3.583771            0.149926
 C            9.090147            4.596468            0.406706
 C            8.835396            5.970855           -0.003292
 C            9.731311            6.953951            0.253180
 H           11.654336            7.492453            1.126035
 H           12.184828            5.172126            1.875537
 H           11.531344            2.786206            2.035142
 H           10.889795            0.419148            2.193071
 H           10.217977           -1.994086            2.329639
 H            9.487305           -4.378938            2.425424
 H            7.776316           -6.112039            1.861646
 H            5.713791           -5.507662            0.683137
 H            5.930201           -2.267859           -1.907068
 H            3.830635           -1.792825           -3.170132
 H            1.357293           -1.833651           -3.286811
 H           -1.102192           -1.855856           -3.398021
 H           -3.569545           -1.893157           -3.522093
 H           -6.650304            0.601152            1.156431
 H           -7.339553            2.255494            2.868689
 H           -8.027875            3.893315            4.591673
 H           -9.716152            5.516797            5.454222
 H          -11.810586            5.922722            4.230206
 H          -12.294819            4.723016            2.096554
 H          -11.594217            3.090710            0.367267
 H          -10.905716            1.471277           -1.348084
 H          -10.185186           -0.192906           -3.080570
 H           -9.403825           -1.860450           -4.766075
 H           -7.650655           -3.476421           -5.517210
 H           -5.593448           -3.793547           -4.221010
 H           -5.868531           -3.310958           -0.158522
 H           -3.768828           -3.805378            1.099536
 H           -1.293287           -3.820490            1.193523
 H            1.167633           -3.806849            1.301111
 H            3.636094           -3.799591            1.410978
 H            6.616080            1.397676           -0.239288
 H            7.257407            3.788129           -0.370257
 H            7.899011            6.173619           -0.522170
 H            9.550813            7.984257           -0.050159

