86

 C           11.618417            1.042169           -6.520038
 C           10.449882            0.597950           -6.025817
 C           10.303984            0.781199           -4.577891
 C            9.246713            0.448040           -3.782132
 C            9.304778            0.716054           -2.364388
 C            8.229851            0.394538           -1.522359
 C            8.284984            0.646507           -0.142989
 C            9.468456            1.240036            0.416625
 C           10.541233            1.569112           -0.424508
 C           10.481291            1.323159           -1.803214
 C           11.584771            1.672090           -2.669734
 C           11.477995            1.405800           -3.993695
 S           12.655350            1.725841           -5.260278
 C            9.531773            1.491847            1.838081
 C            8.462172            1.164929            2.603282
 S            8.283465            1.373392            4.340232
 C            6.649198            0.715429            4.340230
 C            6.246045            0.342426            3.106358
 C            4.928916           -0.243599            2.808540
 C            4.881123           -1.603051            2.304185
 C            3.689550           -2.209798            2.078207
 C            2.435260           -1.518441            2.321796
 C            1.209768           -2.137958            2.134418
 C           -0.006807           -1.443941            2.376164
 C           -1.268458           -2.079527            2.226596
 C           -2.448652           -1.391258            2.465114
 C           -3.742878           -2.037288            2.362596
 C           -4.892216           -1.342783            2.593620
 C           -6.207635           -2.001633            2.540764
 C           -6.596636           -2.990925            3.373723
 S           -8.234166           -3.546058            3.035111
 C           -8.433901           -2.421186            1.698281
 C           -9.514219           -2.278660            0.892698
 C           -9.467142           -1.289721           -0.159878
 C           -8.288159           -0.482819           -0.317931
 C           -8.248550            0.482613           -1.335454
 C           -9.335024            0.671047           -2.202601
 C           -9.292687            1.670778           -3.243659
 C          -10.361318            1.824951           -4.078086
 C          -10.523531            2.769501           -5.188409
 C          -11.700520            2.665903           -5.829389
 S          -12.726356            1.403376           -5.134253
 C          -11.531598            0.980410           -3.914994
 C          -11.623417            0.032437           -2.951545
 C          -10.507469           -0.147178           -2.050017
 C          -10.551516           -1.108124           -1.030321
 C           -7.163851           -0.679512            0.566383
 C           -7.230141           -1.624044            1.549243
 C           -4.845999            0.067844            2.929415
 C           -3.655385            0.705303            3.053085
 C           -2.401241            0.002840            2.843364
 C           -1.175886            0.630432            3.003902
 C            0.040682           -0.072759            2.791552
 C            1.302972            0.547844            2.991632
 C            2.483334           -0.148780            2.780795
 C            3.779060            0.454406            3.026230
 C            7.254135            0.574339            2.057043
 C            7.172207            0.322806            0.718144
 H           11.971829            1.028686           -7.538424
 H            9.655951            0.138891           -6.602036
 H            8.352028           -0.018949           -4.189616
 H            7.333105           -0.057597           -1.947491
 H           11.436642            2.024017            0.000534
 H           12.466295            2.138950           -2.233286
 H           10.434848            1.937482            2.251894
 H            6.103594            0.647778            5.268582
 H            5.828047           -2.114407            2.129323
 H            3.637208           -3.235047            1.711661
 H            1.163776           -3.174793            1.801431
 H           -1.295798           -3.126486            1.924675
 H           -3.763832           -3.095703            2.102328
 H           -6.039184           -3.441708            4.180058
 H          -10.414333           -2.880405            1.006494
 H           -7.354953            1.096282           -1.455372
 H           -8.400437            2.286500           -3.341235
 H           -9.733781            3.470142           -5.430617
 H          -12.066040            3.233046           -6.670182
 H          -12.501944           -0.599083           -2.830200
 H          -11.443600           -1.724155           -0.912448
 H           -6.272705           -0.067436            0.426361
 H           -5.793082            0.583925            3.088924
 H           -3.603788            1.761581            3.317448
 H           -1.130194            1.677904            3.301873
 H            1.330450            1.586259            3.321766
 H            3.800727            1.479455            3.396747
 H            6.277064           -0.115333            0.276579

