86

 C           10.746988            4.685358            1.157593
 C           11.229020            3.560480            0.601409
 C           10.234212            2.493174            0.450736
 C           10.402920            1.243153           -0.070074
 C            9.280352            0.337174           -0.133636
 C            7.995127            0.761407            0.350010
 C            7.845562            2.088314            0.904318
 C            8.929500            2.900583            0.941991
 S            9.028091            4.547288            1.552047
 C            6.904604           -0.116660            0.274651
 C            7.041032           -1.405166           -0.261484
 C            8.329315           -1.835298           -0.733697
 C            9.419490           -0.954385           -0.662099
 C            8.493096           -3.162828           -1.275770
 C            7.421034           -4.003952           -1.339504
 C            7.369980           -5.379582           -1.845460
 C            6.151151           -5.942987           -1.777012
 S            4.948385           -4.844490           -1.086984
 C            6.123886           -3.556989           -0.869755
 C            5.913375           -2.316441           -0.352180
 C            4.571971           -1.895240            0.110800
 C            4.211704           -2.171184            1.488239
 C            2.989864           -1.820653            1.961236
 C            2.015665           -1.160917            1.109493
 C            0.761653           -0.799832            1.577023
 C           -0.179254           -0.155961            0.728979
 C           -1.467318            0.219380            1.197016
 C           -2.375155            0.852036            0.361660
 C           -3.689803            1.251432            0.827584
 C           -4.564250            1.877819           -0.006582
 C           -5.900922            2.309632            0.460259
 C           -6.099463            3.552559            0.976910
 S           -4.912692            4.830753            1.187774
 C           -6.103709            5.939765            1.881377
 C           -7.326823            5.386424            1.955225
 C           -7.391012            4.010552            1.451404
 C           -8.469869            3.177766            1.393682
 C           -8.318804            1.848074            0.853134
 C           -9.415987            0.975569            0.788264
 C           -9.289418           -0.317843            0.261082
 C           -8.010115           -0.752585           -0.228742
 C           -7.873683           -2.081266           -0.782008
 C           -8.963973           -2.885204           -0.812837
 S           -9.078104           -4.531956           -1.419867
 C          -10.795981           -4.656270           -1.016745
 C          -11.266764           -3.527013           -0.459730
 C          -10.262954           -2.467142           -0.315477
 C          -10.419300           -1.215162            0.204596
 C           -6.912346            0.117175           -0.159947
 C           -7.036094            1.407212            0.375532
 C           -4.205632            2.150220           -1.385206
 C           -2.986651            1.793091           -1.860491
 C           -2.013208            1.130760           -1.009658
 C           -0.760443            0.767061           -1.478108
 C            0.180719            0.123145           -0.630041
 C            1.469290           -0.250635           -1.097550
 C            2.378253           -0.880816           -0.261291
 C            3.695354           -1.274271           -0.725194
 H           11.261885            5.607146            1.375957
 H           12.250336            3.406046            0.275473
 H           11.367747            0.906337           -0.444362
 H            6.868028            2.395551            1.273889
 H            5.928294            0.211242            0.640537
 H           10.393992           -1.281668           -1.025617
 H            9.477956           -3.466620           -1.625165
 H            8.264454           -5.853852           -2.229498
 H            5.845621           -6.931858           -2.078914
 H            4.950337           -2.668858            2.116588
 H            2.702674           -2.025391            2.992561
 H            0.480291           -1.007530            2.609269
 H           -1.732749            0.002049            2.231628
 H           -3.949308            1.040249            1.865404
 H           -5.788771            6.926384            2.181157
 H           -8.216086            5.868339            2.341905
 H           -9.450934            3.489728            1.746644
 H          -10.386288            1.310774            1.155902
 H           -6.900651           -2.396561           -1.156560
 H          -11.318917           -5.574390           -1.231133
 H          -12.285320           -3.364314           -0.129182
 H          -11.379695           -0.870438            0.583139
 H           -5.940617           -0.218739           -0.530554
 H           -4.943437            2.650192           -2.012653
 H           -2.701068            1.994449           -2.892947
 H           -0.479837            0.973053           -2.510928
 H            1.734708           -0.033463           -2.132225
 H            3.955390           -1.062084           -1.762706

