86

 C          -17.971607           -0.487995            0.716912
 C          -16.918953           -1.302015            0.526784
 C          -15.633563           -0.603514            0.422488
 C          -14.392377           -1.136146            0.228570
 C          -13.244481           -0.264252            0.149187
 C          -13.418075            1.156917            0.278172
 C          -12.298780            1.998520            0.198931
 C          -11.012674            1.478242           -0.003884
 C           -9.858221            2.346302           -0.080858
 C           -8.638356            1.787716           -0.270215
 S           -7.082174            2.601457           -0.382319
 C           -6.204296            1.072619           -0.609157
 C           -4.756234            1.119993           -0.745697
 C           -4.163184            2.059078           -1.680139
 C           -2.816698            2.120623           -1.831453
 C           -1.931899            1.256653           -1.069728
 C           -0.554364            1.305677           -1.214273
 C            0.292262            0.448195           -0.460680
 C            1.704999            0.488266           -0.601353
 C            2.520901           -0.351432            0.142345
 C            3.963378           -0.315201            0.014700
 C            4.756945           -1.144697            0.754399
 C            6.205212           -1.091434            0.622638
 C            7.030613           -0.024072            0.616168
 C            8.440919           -0.362235            0.428292
 C            9.510291            0.483738            0.368165
 C           10.834920           -0.051497            0.164919
 C           11.950287            0.795584            0.089160
 C           13.240900            0.283155           -0.108307
 C           13.422903           -1.137118           -0.235883
 C           12.307974           -1.984744           -0.161266
 C           11.017981           -1.471620            0.035762
 C            9.868011           -2.345780            0.108310
 C            8.644226           -1.793907            0.292672
 S            7.091825           -2.615601            0.398953
 C           14.752860           -1.667261           -0.438045
 C           15.793744           -0.801630           -0.497971
 S           17.498086           -1.170708           -0.727993
 C           17.969417            0.533081           -0.653756
 C           16.911242            1.341073           -0.468620
 C           15.629323            0.635580           -0.370465
 C           14.384285            1.161335           -0.182650
 C            4.163966           -2.086274            1.686231
 C            2.817269           -2.150419            1.834989
 C            1.932214           -1.287103            1.072939
 C            0.554548           -1.336998            1.216528
 C           -0.292096           -0.479555            0.463062
 C           -1.704869           -0.518773            0.604388
 C           -2.520685            0.321779           -0.138300
 C           -3.963065            0.288390           -0.008025
 C           -7.035071            0.009609           -0.599714
 C           -8.443091            0.354987           -0.406813
 C           -9.516770           -0.485081           -0.342872
 C          -10.837869            0.057160           -0.134336
 C          -11.957514           -0.783686           -0.054267
 C          -14.744156            1.694346            0.486402
 C          -15.789480            0.834524            0.550932
 S          -17.490646            1.213099            0.788790
 H          -19.013768           -0.742409            0.823652
 H          -16.960813           -2.381492            0.449635
 H          -14.240324           -2.209391            0.130137
 H          -12.431790            3.076329            0.297132
 H          -10.002779            3.421114            0.016653
 H           -4.829262            2.701072           -2.258292
 H           -2.359348            2.820019           -2.531889
 H           -0.099316            2.007388           -1.913342
 H            2.142792            1.193527           -1.307935
 H            4.392293            0.391798           -0.696104
 H            6.721206            1.005800            0.744151
 H            9.391537            1.560883            0.469214
 H           11.811641            1.872809            0.185292
 H           12.447259           -3.061866           -0.258439
 H           10.018719           -3.419844            0.011700
 H           14.879654           -2.744209           -0.535636
 H           19.010612            0.793357           -0.755622
 H           16.946768            2.420793           -0.391146
 H           14.225772            2.233747           -0.085193
 H            4.830060           -2.728175            2.264523
 H            2.359923           -2.851951            2.533258
 H            0.099496           -2.039641            1.914622
 H           -2.142704           -1.224266            1.310681
 H           -4.392133           -0.417992            0.703252
 H           -6.731612           -1.021921           -0.728622
 H           -9.404355           -1.562857           -0.444578
 H          -11.825364           -1.861633           -0.151529
 H          -14.864618            2.771960            0.584775

