80

 C           13.068809           -1.876310           -0.622716
 C           12.708881           -0.572960           -0.610065
 C           11.303448           -0.176150           -0.618247
 C           10.922368            1.136725           -0.607479
 C            9.528613            1.523097           -0.621528
 C            9.149837            2.853097           -0.613119
 C            7.772839            3.206630           -0.618160
 C            7.211291            4.480345           -0.596529
 S            5.521870            4.372847           -0.587078
 C            5.466406            2.669296           -0.613571
 C            4.192731            1.968619           -0.608928
 C            3.808376            1.235392           -1.803304
 C            2.618597            0.587729           -1.861215
 C            1.703856            0.591760           -0.732572
 C            0.485974           -0.068020           -0.774712
 C           -0.390396           -0.062482            0.344522
 C           -1.642289           -0.732589            0.312623
 C           -2.484539           -0.728464            1.414826
 C           -3.764951           -1.406655            1.396974
 C           -4.573548           -1.412015            2.496461
 C           -5.853422           -2.101003            2.483347
 C           -6.988139           -1.828678            1.715944
 C           -7.190604           -0.776305            0.784022
 C           -8.395134           -0.661059            0.114917
 C           -8.625996            0.407842           -0.831156
 C           -9.810323            0.527914           -1.502819
 C          -10.052136            1.605951           -2.457673
 C          -11.228368            1.706199           -3.117004
 C          -12.289838            0.739789           -2.893644
 C          -12.125831           -0.279300           -2.020031
 C          -10.881388           -0.443241           -1.273472
 C          -10.700449           -1.464841           -0.382995
 C           -9.464967           -1.621137            0.353031
 C           -9.291332           -2.648264            1.262769
 C           -8.065262           -2.779566            1.971142
 C           -7.716551           -3.732345            2.924216
 S           -6.135220           -3.463000            3.468453
 C           -4.167407           -0.719341            3.706940
 C           -2.981394           -0.063966            3.760773
 C           -2.083617           -0.037569            2.619292
 C           -0.867132            0.625698            2.659857
 C            0.001217            0.633518            1.534990
 C            1.248121            1.314072            1.562817
 C            2.092064            1.306323            0.462470
 C            3.365912            1.998190            0.475723
 C            6.763536            2.152332           -0.636046
 C            7.175037            0.792936           -0.654588
 C            8.520380            0.471562           -0.644581
 C            8.963246           -0.905156           -0.653368
 C           10.290517           -1.232702           -0.640132
 C           10.746049           -2.620186           -0.646715
 C           12.063522           -2.924997           -0.639710
 H           14.113801           -2.182242           -0.620334
 H           13.450778            0.224496           -0.594555
 H           11.665245            1.933873           -0.587282
 H            9.891059            3.649881           -0.598225
 H            7.745022            5.414293           -0.586589
 H            4.504929            1.234609           -2.641828
 H            2.313471            0.044979           -2.755912
 H            0.183669           -0.605276           -1.673493
 H           -1.933921           -1.256434           -0.597603
 H           -4.059682           -1.917936            0.480002
 H           -6.380570           -0.066340            0.617170
 H           -7.816915            1.121186           -0.988729
 H           -9.246486            2.322502           -2.614048
 H          -11.418762            2.505918           -3.830870
 H          -13.213898            0.870553           -3.454529
 H          -12.912594           -1.011161           -1.842210
 H          -11.489423           -2.194559           -0.202525
 H          -10.081907           -3.371338            1.453770
 H           -8.336240           -4.534867            3.283586
 H           -4.849960           -0.733841            4.556317
 H           -2.667864            0.462750            4.662213
 H           -0.558765            1.151918            3.563145
 H            1.534180            1.846509            2.469787
 H            3.641984            2.533532            1.384299
 H            6.409227            0.017817           -0.670232
 H            8.195575           -1.678768           -0.669791
 H            9.980866           -3.395482           -0.656512
 H           12.413319           -3.956134           -0.645274

