80

 C           10.161618           -0.856887           -3.041310
 C           10.392117           -0.281146           -1.839441
 C            9.318076           -0.113792           -0.864135
 C            9.528821            0.464377            0.356712
 C            8.458157            0.630642            1.315060
 C            8.692726            1.215149            2.546719
 C            7.633794            1.366913            3.479675
 C            7.681615            1.917327            4.758986
 S            6.145864            1.863542            5.466636
 C            5.376369            1.132774            4.150829
 C            6.294170            0.910617            3.125879
 C            6.069508            0.317441            1.846718
 C            4.692730           -0.124415            1.523374
 C            4.314149           -1.481230            1.871057
 C            3.057298           -1.928356            1.627263
 C            2.060119           -1.069143            1.012776
 C            0.769744           -1.508444            0.762247
 C           -0.192625           -0.651733            0.162541
 C           -1.518078           -1.090520           -0.099214
 C           -2.448913           -0.246164           -0.685042
 C           -3.803688           -0.682325           -0.963665
 C           -4.702190            0.157710           -1.546964
 C           -6.079274           -0.285662           -1.866709
 C           -7.124981           -0.168212           -0.958691
 C           -6.935195            0.412554            0.351712
 C           -7.962365            0.527497            1.246925
 C           -7.773358            1.120164            2.568086
 C           -8.798317            1.216480            3.445056
 C          -10.123042            0.733123            3.095674
 C          -10.362004            0.181999            1.884123
 C           -9.298743            0.049605            0.891769
 C           -9.518530           -0.502269           -0.339481
 C           -8.458300           -0.634679           -1.314588
 C           -8.701812           -1.193018           -2.556449
 C           -7.652936           -1.312214           -3.505471
 C           -7.710620           -1.833687           -4.796288
 S           -6.183959           -1.748336           -5.520604
 C           -5.405891           -1.040013           -4.197190
 C           -6.313661           -0.850531           -3.156989
 C           -4.323920            1.514205           -1.895892
 C           -3.067270            1.962163           -1.651807
 C           -2.069729            1.103432           -1.037132
 C           -0.779358            1.543186           -0.786196
 C            0.183220            0.686510           -0.186751
 C            1.509020            1.125048            0.074986
 C            2.439739            0.280359            0.660541
 C            3.794793            0.715983            0.939770
 C            7.124462            0.169395            0.953901
 C            6.944267           -0.438598           -0.345265
 C            7.980829           -0.584842           -1.225013
 C            7.801279           -1.204620           -2.534879
 C            8.835572           -1.332318           -3.396632
 H           10.954021           -0.983547           -3.777485
 H           11.381543            0.077364           -1.557988
 H           10.518970            0.818350            0.643558
 H            9.684906            1.567258            2.822500
 H            8.548568            2.321972            5.249358
 H            4.327908            0.884681            4.130386
 H            5.071287           -2.116107            2.331396
 H            2.757687           -2.943964            1.884938
 H            0.474049           -2.524080            1.024843
 H           -1.795580           -2.109825            0.168288
 H           -4.076741           -1.703202           -0.695619
 H           -5.932248            0.762268            0.605649
 H           -6.774774            1.480679            2.814054
 H           -8.668048            1.655970            4.432733
 H          -10.907604            0.833671            3.844228
 H          -11.350682           -0.181835            1.607010
 H          -10.508384           -0.860157           -0.622280
 H           -9.693610           -1.549152           -2.828273
 H           -8.579252           -2.235821           -5.285605
 H           -4.359688           -0.782181           -4.183261
 H           -5.081368            2.148309           -2.356705
 H           -2.768157            2.977861           -1.909653
 H           -0.483959            2.558904           -1.048731
 H            1.786744            2.144197           -0.192810
 H            4.068411            1.736657            0.671592
 H            5.940556           -0.782530           -0.603859
 H            6.801542           -1.558755           -2.785315
 H            8.712302           -1.791928           -4.375964

