78

 C           11.557785           -1.328997           -1.691220
 C           10.246702           -1.318500           -2.172630
 C            9.226277           -0.696042           -1.436054
 C            9.540827           -0.075941           -0.195047
 C           10.879163           -0.093360            0.286786
 C           11.876824           -0.723942           -0.473813
 C           11.172291            0.544576            1.559293
 C           10.199840            1.150476            2.281566
 C            8.824279            1.186917            1.815554
 C            7.808297            1.811678            2.556751
 C            6.496035            1.816775            2.087515
 C            6.164134            1.203580            0.870636
 C            4.748453            1.221088            0.432406
 C            4.310465            2.300352           -0.431696
 C            3.017041            2.378600           -0.832391
 C            2.039750            1.389487           -0.412102
 C            0.712185            1.461278           -0.803703
 C           -0.229873            0.483856           -0.383168
 C           -1.593401            0.547322           -0.776956
 C           -2.503241           -0.413013           -0.361431
 C           -3.896888           -0.366709           -0.760142
 C           -4.773354           -1.324500           -0.350442
 C           -6.191529           -1.301857           -0.780263
 C           -6.553686           -2.008039           -1.936477
 C           -7.868689           -1.998353           -2.398270
 C           -8.857097           -1.276261           -1.710167
 C          -10.233785           -1.231186           -2.172137
 C          -11.179211           -0.530806           -1.501166
 C          -10.855049            0.203452           -0.289548
 C          -11.824681            0.932400            0.417521
 C          -11.476219            1.627897            1.577249
 C          -10.163277            1.611191            2.053469
 C           -9.170691            0.891505            1.369332
 C           -9.514960            0.179614            0.187010
 C           -8.504855           -0.564696           -0.530341
 C           -7.162405           -0.579642           -0.057876
 C           -6.845584            0.155750            1.155296
 C           -7.793121            0.849414            1.829881
 C           -4.334199           -2.406470            0.509573
 C           -3.040265           -2.485808            0.908406
 C           -2.063099           -1.496703            0.487679
 C           -0.735272           -1.569022            0.878466
 C            0.206726           -0.591722            0.457589
 C            1.570169           -0.654961            0.851925
 C            2.479654            0.306250            0.437735
 C            3.872342            0.262342            0.840364
 C            7.162154            0.578783            0.096539
 C            8.502181            0.568516            0.576196
 C            6.875938           -0.062473           -1.176037
 C            7.849590           -0.663962           -1.900090
 H           12.341352           -1.815129           -2.272347
 H           10.015215           -1.795414           -3.123422
 H           12.903396           -0.740873           -0.112055
 H           12.203645            0.516145            1.910661
 H           10.418588            1.627844            3.236683
 H            8.045815            2.293208            3.504647
 H            5.712999            2.301188            2.672339
 H            5.052406            3.035946           -0.741326
 H            2.672645            3.184768           -1.480104
 H            0.372017            2.274821           -1.444169
 H           -1.916508            1.368120           -1.417021
 H           -4.217737            0.456530           -1.398649
 H           -5.792295           -2.568076           -2.480855
 H           -8.129599           -2.551984           -3.299420
 H          -10.475862           -1.780851           -3.081567
 H          -12.211333           -0.495898           -1.849576
 H          -12.852370            0.955203            0.059426
 H          -12.238204            2.190257            2.116883
 H           -9.908608            2.159014            2.959116
 H           -5.811065            0.126246            1.504129
 H           -7.549233            1.398190            2.739489
 H           -5.076003           -3.142057            0.819304
 H           -2.695358           -3.292976            1.554639
 H           -0.394986           -2.383027            1.518306
 H            1.893349           -1.476481            1.491031
 H            4.192531           -0.560304            1.479942
 H            5.842066           -0.040646           -1.527307
 H            7.628364           -1.143397           -2.853545

