78

 C          -10.233425            1.720115           -3.040671
 C          -11.038609            1.260655           -1.996106
 C          -10.481478            0.507125           -0.950582
 C           -9.087665            0.222851           -0.962450
 C           -8.275877            0.699547           -2.028151
 C           -8.864796            1.443817           -3.063360
 C           -6.854861            0.407548           -2.006017
 C           -6.290915           -0.307395           -0.996843
 C           -4.829111           -0.561330           -0.996996
 C           -4.344657           -1.773719           -1.628138
 C           -3.015339           -2.038192           -1.680725
 C           -2.043713           -1.121620           -1.109068
 C           -0.680852           -1.366959           -1.169760
 C            0.253988           -0.455534           -0.607749
 C            1.654114           -0.685466           -0.681609
 C            2.556391            0.211927           -0.130491
 C            3.989143           -0.000599           -0.211700
 C            4.860410            0.891774            0.333830
 C            6.327955            0.696370            0.235914
 C            7.007196            1.180690           -0.837170
 C            8.438203            0.988408           -0.979976
 C            9.146022            1.478721           -2.089574
 C           10.520548            1.258886           -2.200487
 C           11.214041            0.553922           -1.214174
 C           10.536418            0.056959           -0.089461
 C            9.135653            0.273347            0.032048
 C            8.419971           -0.232706            1.180333
 C            9.123845           -0.941886            2.193455
 C            8.423840           -1.425384            3.310128
 C            7.049032           -1.211528            3.424500
 C            6.348849           -0.520831            2.433237
 C            7.017146           -0.025982            1.302022
 C           10.554845           -1.146157            2.040799
 C           11.223588           -0.675633            0.961148
 C            4.372502            2.073264            1.018664
 C            3.040655            2.311895            1.114823
 C            2.070153            1.396544            0.539978
 C            0.706370            1.632732            0.615993
 C           -0.227455            0.726887            0.044172
 C           -1.626602            0.968574            0.097984
 C           -2.528193            0.078645           -0.465513
 C           -3.958084            0.321369           -0.435518
 C           -7.099525           -0.828142            0.102317
 C           -6.552099           -1.587659            1.148546
 C           -7.363972           -2.058728            2.182463
 C           -8.732424           -1.783077            2.197950
 C           -9.313076           -1.028797            1.166122
 C           -8.494969           -0.548316            0.105692
 C          -10.733919           -0.722554            1.149305
 C          -11.287370            0.004455            0.149612
 H          -10.678861            2.301815           -3.847753
 H          -12.103275            1.487212           -1.992808
 H           -8.252032            1.808546           -3.886089
 H           -6.249455            0.788455           -2.830036
 H           -5.082220           -2.453712           -2.053744
 H           -2.636977           -2.943909           -2.154678
 H           -0.306139           -2.268392           -1.654516
 H            2.012350           -1.583171           -1.185637
 H            4.343033           -0.894722           -0.725128
 H            6.490699            1.726299           -1.628414
 H            8.621019            2.030529           -2.867521
 H           11.058775            1.640934           -3.067995
 H           12.284984            0.389143           -1.317870
 H            8.955285           -1.969106            4.089606
 H            6.514539           -1.588434            4.296251
 H            5.274120           -0.365090            2.539072
 H           11.069013           -1.694616            2.829992
 H           12.296492           -0.831403            0.847826
 H            5.109483            2.752877            1.446012
 H            2.659747            3.197306            1.623844
 H            0.330509            2.524161            1.118153
 H           -1.984028            1.873834            0.588997
 H           -4.309893            1.233436            0.046890
 H           -5.484299           -1.811698            1.154467
 H           -6.922678           -2.647593            2.986370
 H           -9.351904           -2.154610            3.012691
 H          -11.337237           -1.101199            1.974282
 H          -12.352940            0.234076            0.139685

