110

 C            8.541044            3.378572           -7.557948
 C            7.119864            3.652663           -7.448966
 C            6.434709            3.319101           -6.330836
 C            7.099340            2.676566           -5.202095
 C            6.421263            2.333068           -4.061054
 C            7.088833            1.698133           -2.953280
 C            6.407279            1.342009           -1.794456
 C            7.075851            0.715473           -0.712115
 C            6.387241            0.339952            0.468558
 C            7.045699           -0.272341            1.530584
 C            8.465994           -0.526040            1.426743
 C            9.150963           -0.165482            0.270363
 C            8.485910            0.453029           -0.816610
 C            9.172038            0.818425           -2.002538
 C            8.506238            1.426844           -3.060902
 C            9.191190            1.798563           -4.272912
 C            8.529102            2.400186           -5.311763
 C            9.210439            2.782893           -6.543930
 C            9.144529           -1.151685            2.530917
 C            8.473684           -1.507585            3.671913
 C            9.159611           -2.140720            4.793268
 C            8.492393           -2.484467            5.918973
 C            7.069051           -2.232650            6.039267
 C            6.381015           -1.653687            5.028167
 C            7.040914           -1.258280            3.788058
 C            6.360616           -0.667046            2.744971
 C            4.900961           -0.420980            2.844402
 C            4.458913            0.835691            3.418855
 C            3.136035            1.102264            3.553759
 C            2.130015            0.145225            3.127117
 C            0.774409            0.401376            3.259951
 C           -0.195438           -0.544034            2.830176
 C           -1.587603           -0.287241            2.949807
 C           -2.524699           -1.215222            2.522220
 C           -3.949129           -0.968872            2.639387
 C           -4.855217           -1.894514            2.220909
 C           -6.314257           -1.665218            2.361218
 C           -6.974915           -2.059734            3.504983
 C           -6.294905           -2.726899            4.610606
 C           -6.963770           -3.104699            5.724504
 C           -8.385952           -2.852376            5.857229
 C           -9.071372           -2.237721            4.865850
 C           -8.406707           -1.813020            3.638403
 C           -9.096071           -1.194944            2.627993
 C           -8.438495           -0.777787            1.417687
 C           -9.142684           -0.151478            0.394259
 C           -8.498519            0.257882           -0.799240
 C           -9.204667            0.903287           -1.845472
 C           -8.559512            1.298482           -3.012433
 C           -9.265108            1.959361           -4.080634
 C           -8.623343            2.345020           -5.229237
 C           -9.325701            3.013850           -6.319169
 C           -8.676107            3.385875           -7.446504
 C           -7.255974            3.130299           -7.603070
 C           -6.552102            2.513689           -6.625559
 C           -7.194811            2.086949           -5.387344
 C           -6.497593            1.459700           -4.387008
 C           -7.143506            1.044466           -3.168059
 C           -6.442511            0.412320           -2.146271
 C           -7.089764            0.011467           -0.950172
 C           -6.381466           -0.623856            0.100942
 C           -7.019327           -1.018226            1.272848
 C           -4.413753           -3.146942            1.636907
 C           -3.090969           -3.417771            1.509822
 C           -2.084195           -2.466832            1.948881
 C           -0.728670           -2.729852            1.830444
 C            0.241592           -1.783992            2.259290
 C            1.633637           -2.036954            2.131654
 C            2.570780           -1.103731            2.548446
 C            3.995256           -1.346461            2.424585
 H            9.040881            3.669088           -8.481005
 H            6.632891            4.132656           -8.296515
 H            5.367745            3.517671           -6.234829
 H            5.354212            2.532932           -3.964453
 H            5.339363            1.542708           -1.705449
 H            5.315141            0.539935            0.533279
 H           10.220436           -0.358646            0.190667
 H           10.239688            0.613491           -2.076140
 H           10.257720            1.584705           -4.339087
 H           10.276698            2.570279           -6.611961
 H           10.214256           -1.335018            2.432338
 H           10.227936           -2.323166            4.684309
 H            8.995685           -2.956273            6.761481
 H            6.580286           -2.526046            6.967067
 H            5.309079           -1.462676            5.109367
 H            5.223459            1.545716            3.734337
 H            2.789147            2.041108            3.985642
 H            0.433323            1.338959            3.698620
 H           -1.911297            0.658456            3.384725
 H           -4.269500           -0.022806            3.076341
 H           -5.224160           -2.911467            4.503281
 H           -6.460100           -3.605825            6.549767
 H           -8.873343           -3.174108            6.776235
 H          -10.139263           -2.039128            4.947814
 H          -10.165241           -1.003660            2.717462
 H          -10.211314            0.031667            0.503679
 H          -10.271331            1.089205           -1.723005
 H          -10.330580            2.145031           -3.946668
 H          -10.391104            3.199367           -6.187611
 H           -9.191845            3.884363           -8.266091
 H           -6.785414            3.452142           -8.530919
 H           -5.485792            2.315303           -6.728682
 H           -5.431285            1.259653           -4.490880
 H           -5.375574            0.216907           -2.256020
 H           -5.310657           -0.800737           -0.023958
 H           -5.178674           -3.851679            1.310933
 H           -2.744651           -4.355578            1.075332
 H           -0.387687           -3.672633            1.403090
 H            1.957415           -2.982224            1.695981
 H            4.315962           -2.292907            1.988789

