110

 C            8.959071           -0.111862           -9.216290
 C            9.615758           -0.116025           -8.033095
 C            8.906655            0.096487           -6.775830
 C            9.555797            0.096548           -5.568106
 C            8.844503            0.310432           -4.333449
 C            9.495616            0.314311           -3.104532
 C            8.784579            0.527043           -1.896222
 C            9.439191            0.536445           -0.639070
 C            8.731618            0.744743            0.540444
 C            9.384390            0.765576            1.823698
 C            8.680514            0.970221            2.982976
 C            9.345442            1.003155            4.280641
 C            8.643652            1.197933            5.420717
 C            7.206820            1.375550            5.384545
 C            6.530480            1.359314            4.206874
 C            5.059272            1.546053            4.195002
 C            4.547708            2.891463            4.016824
 C            3.212223            3.126900            4.033302
 C            2.261554            2.045653            4.226354
 C            0.894700            2.272642            4.262640
 C           -0.021306            1.202728            4.451198
 C           -1.423907            1.424358            4.503496
 C           -2.308059            0.372509            4.688646
 C           -3.741609            0.583441            4.763665
 C           -4.592597           -0.462591            4.948312
 C           -6.057319           -0.260989            5.065055
 C           -6.886144           -0.341632            3.858757
 C           -6.365417           -0.604350            2.617470
 C           -7.201596           -0.672152            1.446171
 C           -6.677752           -0.945380            0.186349
 C           -7.510137           -1.001700           -0.959585
 C           -6.985737           -1.278631           -2.247858
 C           -7.809631           -1.327403           -3.366981
 C           -7.287742           -1.605417           -4.681008
 C           -8.106470           -1.653385           -5.779627
 C           -7.591337           -1.934841           -7.115300
 C           -8.415054           -1.980427           -8.187842
 C           -9.840317           -1.748887           -8.039450
 C          -10.375063           -1.481866           -6.825495
 C           -9.540237           -1.419225           -5.630459
 C          -10.064902           -1.150347           -4.392741
 C           -9.230156           -1.093802           -3.219473
 C           -9.754563           -0.823086           -1.960478
 C           -8.922731           -0.770844           -0.812889
 C           -9.447715           -0.498055            0.474755
 C           -8.622376           -0.447447            1.593793
 C           -9.142859           -0.178701            2.908883
 C           -8.323552           -0.128942            4.007917
 C           -8.854791            0.132112            5.340730
 C           -8.040047            0.186255            6.419477
 C           -6.612213           -0.010567            6.279167
 C           -4.084357           -1.816384            5.060982
 C           -2.751186           -2.057427            4.999869
 C           -1.799952           -0.974390            4.819371
 C           -0.433717           -1.202603            4.773384
 C            0.482892           -0.131226            4.595212
 C            1.886191           -0.350862            4.559782
 C            2.771057            0.702481            4.385914
 C            4.207311            0.498340            4.365755
 C            7.233285            1.162942            2.935525
 C            6.587712            1.152513            1.725735
 C            7.301088            0.950582            0.490228
 C            6.650457            0.947813           -0.739407
 C            7.362551            0.740134           -1.947614
 C            6.708472            0.735955           -3.205600
 C            7.414754            0.526963           -4.385345
 C            6.760539            0.519107           -5.668955
 C            7.463627            0.314100           -6.828073
 C            6.813998            0.305566           -8.134288
 C            7.524614            0.103831           -9.268062
 H            9.478907           -0.268638          -10.160367
 H           10.691759           -0.277182           -7.978060
 H           10.632010           -0.065553           -5.512515
 H           10.572115            0.151606           -3.058109
 H           10.516591            0.376913           -0.606817
 H           10.463465            0.614618            1.846380
 H           10.426241            0.866677            4.292392
 H            9.128977            1.227143            6.395713
 H            6.690123            1.522151            6.333106
 H            5.270904            3.694209            3.873481
 H            2.813222            4.132779            3.903517
 H            0.503111            3.283103            4.146378
 H           -1.797572            2.442711            4.398023
 H           -4.112486            1.604396            4.672354
 H           -5.293776           -0.768631            2.485213
 H           -5.608336           -1.120872            0.067804
 H           -5.915206           -1.454782           -2.352262
 H           -6.215733           -1.777400           -4.775342
 H           -6.519654           -2.106184           -7.210473
 H           -8.040522           -2.190409           -9.188606
 H          -10.454574           -1.798646           -8.937375
 H          -11.442545           -1.305460           -6.698228
 H          -11.132479           -0.972412           -4.265240
 H          -10.823275           -0.646034           -1.842077
 H          -10.518605           -0.326456            0.579961
 H          -10.216147           -0.016579            3.006420
 H           -9.930544            0.279078            5.430488
 H           -8.424869            0.378046            7.420498
 H           -6.001422            0.049687            7.180106
 H           -4.807811           -2.620095            5.196870
 H           -2.354490           -3.068939            5.085454
 H           -0.042906           -2.214990            4.874702
 H            2.260242           -1.368011            4.675196
 H            4.579883           -0.517838            4.495480
 H            5.506531            1.296520            1.668658
 H            5.572981            1.107268           -0.785769
 H            5.631461            0.900238           -3.238233
 H            5.683187            0.682097           -5.690601
 H            5.736983            0.468347           -8.156570
 H            7.049215            0.096670          -10.247741

