110

 C           19.619246            0.848641           -2.876310
 C           18.921846            1.371038           -4.037035
 C           17.569618            1.386274           -4.082661
 C           16.772517            0.880546           -2.970641
 C           15.402074            0.889379           -2.998460
 C           14.627139            0.386464           -1.893412
 C           13.237169            0.391950           -1.915951
 C           12.484119           -0.108715           -0.824776
 C           11.067627           -0.111936           -0.844893
 C           10.334607           -0.609019            0.226824
 C            8.895431           -0.618421            0.212424
 C            8.175942           -1.102303            1.274373
 C            6.721081           -1.094805            1.276510
 C            6.015913           -1.561300            2.339935
 C            4.537798           -1.514499            2.349753
 C            3.798990           -2.745038            2.556107
 C            2.442510           -2.744866            2.536396
 C            1.693415           -1.520357            2.313353
 C            0.308024           -1.503900            2.276760
 C           -0.404936           -0.293743            2.059050
 C           -1.824484           -0.263147            2.024023
 C           -2.509282            0.922789            1.805540
 C           -3.956899            0.966904            1.753248
 C           -4.617139            2.137064            1.523795
 C           -6.093107            2.169874            1.435466
 C           -6.758200            1.374708            0.557388
 C           -8.211612            1.378464            0.487578
 C           -8.891452            0.568470           -0.384806
 C          -10.330096            0.563429           -0.434130
 C          -11.023029           -0.262228           -1.311987
 C          -12.439201           -0.259480           -1.357103
 C          -13.151183           -1.095311           -2.252834
 C          -14.540785           -1.083524           -2.297473
 C          -15.274051           -1.926323           -3.206460
 C          -16.644226           -1.909457           -3.246487
 C          -17.399314           -2.757426           -4.162111
 C          -18.751862           -2.727781           -4.187434
 C          -19.491519           -1.847887           -3.301315
 C          -18.844499           -1.038386           -2.430998
 C          -17.387920           -1.023973           -2.354843
 C          -16.715552           -0.210705           -1.479051
 C          -15.276560           -0.205780           -1.413480
 C          -14.585665            0.615908           -0.528436
 C          -13.168929            0.612974           -0.476079
 C          -12.451802            1.447199            0.419184
 C          -11.061336            1.439141            0.455656
 C          -10.317697            2.281616            1.358363
 C           -8.946993            2.264183            1.385047
 C           -8.177676            3.106775            2.294418
 C           -6.826161            3.064191            2.320935
 C           -3.878409            3.372276            1.345313
 C           -2.522471            3.375729            1.386299
 C           -1.773666            2.151537            1.612205
 C           -0.388195            2.134521            1.644387
 C            0.324668            0.925508            1.869044
 C            1.744049            0.895816            1.908854
 C            2.428714           -0.290955            2.123545
 C            3.876728           -0.338949            2.152222
 C            6.706550           -2.102880            3.502075
 C            8.057896           -2.133229            3.549495
 C            8.868565           -1.628950            2.446269
 C           10.239124           -1.633707            2.486552
 C           11.023533           -1.128205            1.388206
 C           12.414359           -1.127120            1.417085
 C           13.171984           -0.627610            0.327381
 C           14.589806           -0.626587            0.340876
 C           15.320909           -0.136089           -0.736195
 C           16.761501           -0.131503           -0.736645
 C           17.473759            0.353817           -1.803090
 C           18.932329            0.364772           -1.815582
 H           20.707807            0.861494           -2.894383
 H           19.525671            1.746111           -4.861848
 H           17.032043            1.774337           -4.947170
 H           14.862597            1.278469           -3.861743
 H           12.706950            0.784512           -2.783355
 H           10.553261            0.283299           -1.720658
 H            8.393001           -0.226078           -0.671480
 H            6.220174           -0.699688            0.392301
 H            4.368173           -3.660348            2.716318
 H            1.874684           -3.662985            2.686045
 H           -0.255101           -2.426838            2.413858
 H           -2.372026           -1.193553            2.171874
 H           -4.498829            0.033348            1.905031
 H           -6.225316            0.709103           -0.122169
 H           -8.357199           -0.095414           -1.064117
 H          -10.477183           -0.926330           -1.981868
 H          -12.589733           -1.754363           -2.914677
 H          -14.703425           -2.580884           -3.864956
 H          -16.830507           -3.412206           -4.821398
 H          -19.324663           -3.356728           -4.866999
 H          -20.578282           -1.865596           -3.365218
 H          -19.386427           -0.372597           -1.760338
 H          -17.257016            0.455505           -0.807820
 H          -15.134782            1.278339            0.140352
 H          -13.009849            2.103600            1.086462
 H          -10.880753            2.935668            2.023927
 H           -8.737766            3.770096            2.953579
 H           -6.245607            3.682751            3.004839
 H           -4.447293            4.284960            1.169859
 H           -1.954776            4.296044            1.250001
 H            0.175272            3.055360            1.494814
 H            2.291801            1.826949            1.766163
 H            4.418626            0.596490            2.011857
 H            6.094657           -2.468602            4.326103
 H            8.586665           -2.533144            4.414734
 H           10.770672           -2.020939            3.355615
 H           12.940640           -1.516018            2.288463
 H           15.106973           -1.020592            1.215462
 H           17.270962           -0.528016            0.141299
 H           19.442274           -0.031381           -0.938213

