110

 C           -5.378863            7.113296            2.055010
 C           -4.176941            6.496734            1.526955
 C           -4.203815            5.235424            1.037845
 C           -5.435695            4.453350            1.018432
 C           -6.644669            5.078514            1.543961
 C           -6.551534            6.438811            2.063485
 C           -7.830300            4.391251            1.544899
 C           -7.919149            3.049481            1.032365
 C           -9.125444            2.356168            1.035082
 C           -9.216788            1.035882            0.529972
 C          -10.439240            0.317864            0.535081
 C          -10.515002           -0.977731            0.035667
 C          -11.750125           -1.719671            0.040381
 C          -11.818080           -2.996586           -0.454068
 C          -13.061846           -3.759361           -0.455828
 C          -13.109892           -5.018479           -0.948986
 C          -11.920562           -5.648910           -1.491878
 C          -10.738753           -4.990159           -1.516756
 C          -10.621761           -3.630586           -1.000963
 C           -9.432517           -2.948245           -1.018872
 C           -9.328859           -1.606455           -0.504441
 C           -8.125216           -0.909429           -0.513486
 C           -8.035941            0.409430           -0.000351
 C           -6.811439            1.124112            0.004965
 C           -6.727563            2.418807            0.507990
 C           -5.486289            3.166237            0.526867
 C           -4.258691            2.516144            0.005879
 C           -3.936792            2.690323           -1.397886
 C           -2.807172            2.148081           -1.916708
 C           -1.892583            1.381896           -1.087791
 C           -0.725745            0.835334           -1.598193
 C            0.158099            0.091077           -0.770545
 C            1.358272           -0.471760           -1.281453
 C            2.211940           -1.197437           -0.464440
 C            3.434568           -1.788393           -0.973596
 C            4.254564           -2.508352           -0.159477
 C            5.490719           -3.146174           -0.675307
 C            6.732367           -2.402087           -0.606979
 C            6.806347           -1.122693           -0.064803
 C            8.031962           -0.412303           -0.007575
 C            8.111395            0.889890            0.547939
 C            9.316994            1.582083            0.592539
 C            9.411129            2.906486            1.151857
 C           10.602890            3.583615            1.188558
 C           10.710572            4.925273            1.751181
 C           11.895145            5.578767            1.780852
 C           13.096733            4.960700            1.250845
 C           13.057593            3.718622            0.715444
 C           11.811497            2.962111            0.654476
 C           11.752451            1.702244            0.117024
 C           10.515096            0.965864            0.064538
 C           10.448469           -0.312857           -0.477827
 C            9.224251           -1.026213           -0.526819
 C            9.142205           -2.329940           -1.074757
 C            7.934791           -3.019719           -1.121878
 C            7.855374           -4.345376           -1.676163
 C            6.669082           -5.030002           -1.721728
 C            6.586223           -6.374780           -2.281656
 C            5.413273           -7.047880           -2.317207
 C            4.200581           -6.445080           -1.797889
 C            4.217766           -5.198155           -1.272671
 C            5.449401           -4.418311           -1.204986
 C            3.929174           -2.687452            1.242816
 C            2.795930           -2.150804            1.759593
 C            1.881535           -1.385345            0.930035
 C            0.713621           -0.840290            1.439827
 C           -0.169659           -0.095763            0.612188
 C           -1.369078            0.468405            1.123661
 C           -2.221737            1.195603            0.307268
 C           -3.440973            1.791897            0.818397
 H           -5.299138            8.128885            2.439781
 H           -3.260023            7.084071            1.539971
 H           -3.303106            4.763468            0.640351
 H           -7.464121            6.885249            2.456593
 H           -8.739647            4.847129            1.936153
 H          -10.023179            2.829923            1.431368
 H          -11.329299            0.798142            0.940839
 H          -12.633529           -1.232210            0.452326
 H          -13.946582           -3.273884           -0.045409
 H          -14.033407           -5.595677           -0.955432
 H          -12.017966           -6.663740           -1.874277
 H           -9.837571           -5.450148           -1.920759
 H           -8.531603           -3.408263           -1.424584
 H           -7.227468           -1.376230           -0.919482
 H           -5.920532            0.635610           -0.396279
 H           -4.630168            3.268187           -2.008876
 H           -2.551567            2.272268           -2.969103
 H           -0.468889            0.972167           -2.648543
 H            1.599885           -0.325335           -2.334262
 H            3.672060           -1.642450           -2.027547
 H            5.906576           -0.643395            0.327819
 H            7.204377            1.347280            0.944035
 H            8.500810            3.357343            1.546825
 H            9.799986            5.376123            2.144360
 H           11.985785            6.580105            2.198969
 H           14.021925            5.533053            1.301846
 H           13.951342            3.242547            0.313739
 H           12.644793            1.224348           -0.286686
 H           11.347166           -0.783522           -0.875632
 H           10.047976           -2.793881           -1.464192
 H            8.772412           -4.791501           -2.060535
 H            7.506587           -6.811171           -2.667778
 H            5.341340           -8.052235           -2.731737
 H            3.283905           -7.030762           -1.846931
 H            3.309111           -4.736769           -0.880869
 H            4.622500           -3.264979            1.854243
 H            2.537263           -2.279114            2.810719
 H            0.455877           -0.978371            2.489773
 H           -1.610321            0.322294            2.176580
 H           -3.676752            1.648050            1.873013

