62

 C          -10.573567            1.999992           -1.748324
 C           -9.570958            1.433473           -2.494168
 C           -8.387013            0.939707           -1.859730
 C           -7.324960            0.343202           -2.611361
 C           -6.197667           -0.117182           -1.982396
 C           -6.065737           -0.007875           -0.560996
 C           -4.825388           -0.497343            0.080968
 C           -4.934028           -1.487084            1.136122
 C           -3.824886           -1.962127            1.756101
 C           -2.499908           -1.495621            1.387121
 C           -1.354897           -1.966221            2.011366
 C           -0.068006           -1.496113            1.633601
 C            1.115758           -1.968308            2.262948
 C            2.363730           -1.498720            1.883082
 C            3.588209           -1.966543            2.509178
 C            4.800060           -1.496035            2.120705
 C            4.905095           -0.513354            1.059216
 C            6.246934           -0.045212            0.647659
 C            7.117904            0.541932            1.619471
 C            8.353004            1.007949            1.249095
 C            8.794153            0.909023           -0.109340
 C           10.076587            1.391032           -0.523114
 C           10.469447            1.283699           -1.833570
 C            9.605278            0.690851           -2.800504
 C            8.370693            0.219803           -2.431967
 C            7.934697            0.318893           -1.071930
 C            6.650380           -0.156752           -0.664734
 C            3.782882           -0.042670            0.446091
 C            2.467988           -0.514119            0.830532
 C            1.321193           -0.046427            0.208295
 C            0.038171           -0.520184            0.589265
 C           -1.141098           -0.046138           -0.043965
 C           -2.390643           -0.511721            0.334247
 C           -3.602343           -0.034528           -0.301882
 C           -7.077280            0.554831            0.185262
 C           -8.260999            1.043670           -0.450005
 C           -9.323400            1.639667            0.302486
 C          -10.447943            2.104073           -0.331727
 H          -11.477941            2.378626           -2.221881
 H           -9.656477            1.350347           -3.576523
 H           -7.432312            0.263459           -3.692587
 H           -5.387703           -0.578185           -2.547200
 H           -5.931415           -1.835603            1.402338
 H           -3.894716           -2.707940            2.547519
 H           -1.428828           -2.708321            2.805631
 H            1.026798           -2.711785            3.054376
 H            3.497656           -2.710782            3.300059
 H            5.723744           -1.844952            2.581322
 H            6.773705            0.618623            2.650432
 H            9.018885            1.464248            1.980925
 H           10.729690            1.843312            0.221604
 H           11.443122            1.647542           -2.157736
 H            9.944337            0.621219           -3.832917
 H            7.702089           -0.234087           -3.161772
 H            5.999268           -0.611525           -1.410851
 H            3.841992            0.702624           -0.347002
 H            1.391712            0.695293           -0.586712
 H           -1.048140            0.695061           -0.837171
 H           -3.500823            0.711408           -1.089979
 H           -6.987744            0.645072            1.267437
 H           -9.217756            1.716269            1.383530
 H          -11.260384            2.559058            0.232762

