74

 C           -8.221187            3.431240            0.307323
 C           -6.983887            3.316704           -0.416239
 C           -6.323783            2.126546           -0.474556
 C           -6.845853            0.952161            0.188104
 C           -8.082604            1.067505            0.902045
 C           -8.752160            2.348328            0.939784
 C           -8.619618           -0.052031            1.551817
 C           -7.962999           -1.289507            1.512628
 C           -8.508484           -2.448750            2.182542
 C           -7.862020           -3.646648            2.140257
 C           -6.623929           -3.779956            1.421305
 C           -6.078493           -2.710453            0.777646
 C           -6.725891           -1.417687            0.801583
 C           -6.180046           -0.290314            0.154020
 C           -4.884863           -0.409517           -0.559603
 C           -4.903080           -0.781696           -1.961438
 C           -3.744489           -0.903909           -2.656245
 C           -2.458485           -0.667033           -2.022516
 C           -1.263741           -0.786667           -2.715780
 C           -0.016777           -0.548079           -2.075963
 C            1.217746           -0.664401           -2.770976
 C            2.424621           -0.424522           -2.131623
 C            3.698199           -0.535445           -2.822155
 C            4.868598           -0.292404           -2.180742
 C            4.875648            0.086134           -0.780510
 C            6.182343            0.347014           -0.128156
 C            6.869389           -0.708144            0.506350
 C            6.357973           -2.060476            0.526956
 C            7.038440           -3.058217            1.157100
 C            8.286883           -2.787335            1.817214
 C            8.808118           -1.529148            1.816134
 C            8.117267           -0.442732            1.158341
 C            8.644370            0.855824            1.153380
 C            7.966639            1.904049            0.516245
 C            8.501522            3.247286            0.509029
 C            7.834053            4.259848           -0.110517
 C            6.583892            4.007885           -0.774594
 C            6.048116            2.755609           -0.789307
 C            6.717850            1.651429           -0.138745
 C            3.708052            0.199776           -0.089877
 C            2.434342           -0.050258           -0.735745
 C            1.237387            0.064159           -0.046483
 C           -0.004194           -0.178517           -0.691368
 C           -1.233841           -0.060519            0.009310
 C           -2.442867           -0.295411           -0.625870
 C           -3.704892           -0.177098            0.078173
 H           -8.715142            4.401222            0.332288
 H           -6.593937            4.203724           -0.913141
 H           -5.385740            2.030376           -1.024245
 H           -9.689943            2.416798            1.489214
 H           -9.559455            0.041082            2.095312
 H           -9.448504           -2.331141            2.719697
 H           -8.261980           -4.525213            2.643863
 H           -6.139541           -4.755120            1.406769
 H           -5.140561           -2.803868            0.227326
 H           -5.873860           -0.956346           -2.425747
 H           -3.744792           -1.182916           -3.709769
 H           -1.266855           -1.066861           -3.768734
 H            1.201829           -0.946675           -3.823259
 H            3.679575           -0.820303           -3.873955
 H            5.830177           -0.371683           -2.688276
 H            5.411015           -2.257948            0.021453
 H            6.656699           -4.077831            1.176042
 H            8.796777           -3.612154            2.312405
 H            9.753691           -1.307352            2.308818
 H            9.592735            1.053238            1.652370
 H            9.450585            3.420305            1.014348
 H            8.225851            5.275719           -0.118993
 H            6.082368            4.842412           -1.262212
 H            5.100973            2.555353           -1.293411
 H            3.699373            0.482358            0.963193
 H            1.235251            0.344848            1.006558
 H           -1.212383            0.220248            1.062116
 H           -3.677172            0.103302            1.131491

