94

 C            7.674268            2.077045            5.826057
 C            6.538850            1.178392            5.779836
 C            6.021352            0.776779            4.594654
 C            6.583009            1.231030            3.328419
 C            7.727871            2.130649            3.378139
 C            8.241322            2.529064            4.682580
 C            8.304569            2.595737            2.219342
 C            7.788419            2.202800            0.943178
 N            8.374956            2.678641           -0.191030
 C            7.860411            2.287776           -1.386165
 C            8.441436            2.764146           -2.609144
 C            7.929122            2.373489           -3.823402
 C            8.501784            2.843779           -5.079024
 C            7.990979            2.452655           -6.270332
 C            6.855218            1.553063           -6.331520
 C            6.282048            1.084653           -5.198267
 C            6.786546            1.467778           -3.885400
 C            6.208781            0.994724           -2.731649
 C            6.719813            1.385786           -1.448339
 N            6.135077            0.912444           -0.317589
 C            6.646297            1.305428            0.881360
 C            6.056053            0.835126            2.111843
 C            4.877296           -0.061308            2.032010
 C            5.102306           -1.493982            2.017803
 C            4.053615           -2.352480            1.955849
 C            2.685502           -1.867105            1.898029
 C            1.601607           -2.729288            1.831959
 C            0.270794           -2.232612            1.776980
 C           -0.850930           -3.103214            1.714006
 C           -2.143529           -2.603379            1.664737
 C           -3.304366           -3.474391            1.600848
 C           -4.561885           -2.967582            1.548603
 C           -4.775191           -1.533242            1.560803
 C           -6.168656           -1.027770            1.511590
 C           -6.766627           -0.787325            0.219930
 N           -6.065014           -1.043462           -0.918000
 C           -6.666259           -0.794281           -2.110142
 C           -5.958064           -1.050318           -3.332198
 C           -6.550167           -0.798845           -4.546699
 C           -5.847754           -1.049347           -5.799092
 C           -6.435582           -0.799901           -6.992601
 C           -7.785697           -0.274605           -7.057951
 C           -8.486643           -0.021831           -5.927442
 C           -7.908670           -0.269885           -4.612100
 C           -8.612704           -0.017147           -3.458723
 C           -8.021916           -0.268616           -2.175051
 N           -8.726304           -0.016246           -1.040798
 C           -8.122632           -0.266843            0.154787
 C           -8.835476           -0.009881            1.369558
 C           -8.246061           -0.251968            2.588410
 C           -8.959706            0.012601            3.831284
 C           -8.382063           -0.220711            5.033495
 C           -7.034384           -0.746353            5.113704
 C           -6.325796           -1.009224            3.990068
 C           -6.888070           -0.773865            2.665855
 C           -3.720001           -0.675103            1.616551
 C           -2.359631           -1.174427            1.672203
 C           -1.273595           -0.314900            1.731304
 C            0.054305           -0.815814            1.786041
 C            1.172358            0.058065            1.850414
 C            2.465136           -0.438719            1.906704
 C            3.614477            0.443264            1.974538
 H            8.049224            2.371275            6.805710
 H            6.120968            0.841054            6.727732
 H            5.165424            0.099384            4.549293
 H            9.096887            3.204530            4.697077
 H            9.162369            3.272556            2.232609
 H            9.295717            3.440964           -2.533907
 H            9.354384            3.520523           -5.018315
 H            8.412201            2.797792           -7.214018
 H            6.485067            1.272370           -7.316889
 H            5.427283            0.408540           -5.226559
 H            5.352697            0.315261           -2.749266
 H            6.132551           -1.846765            2.046884
 H            4.206147           -3.431315            1.942933
 H            1.758230           -3.807511            1.819690
 H           -0.678195           -4.178994            1.703346
 H           -3.127483           -4.549540            1.591684
 H           -5.438560           -3.611050            1.485123
 H           -4.942487           -1.447163           -3.254404
 H           -4.833591           -1.443839           -5.732138
 H           -5.918438           -0.983762           -7.933623
 H           -8.208868           -0.093262           -8.045415
 H           -9.501866            0.373949           -5.962002
 H           -9.630844            0.378375           -3.478911
 H           -9.851830            0.382893            1.287475
 H           -9.973352            0.405582            3.750858
 H           -8.906331           -0.023323            5.967854
 H           -6.616856           -0.920770            6.104776
 H           -5.309304           -1.406547            4.039891
 H           -3.866562            0.404599            1.611521
 H           -1.427639            0.763881            1.733872
 H            0.997546            1.133685            1.852446
 H            3.433108            1.517686            1.968660

