90

 C           17.154155            0.766981           -3.760506
 C           16.247151           -0.193720           -3.473666
 C           14.977439            0.156980           -2.843388
 N           14.088189           -0.786565           -2.561986
 C           12.889735           -0.399356           -1.956415
 C           11.933887           -1.378490           -1.644447
 C           10.731649           -0.992994           -1.030832
 N            9.784929           -1.969969           -0.711982
 C            8.657024           -1.578545           -0.133525
 C            7.636183           -2.558513            0.227387
 C            6.480852           -2.163658            0.805643
 C            6.212521           -0.757017            1.091725
 C            4.916150           -0.411754            1.717506
 C            4.932943            0.357144            2.947726
 C            3.772876            0.719022            3.549748
 C            2.486677            0.349342            2.986133
 C            1.292747            0.723060            3.583008
 C            0.043655            0.343909            3.022343
 C           -1.186447            0.717357            3.627721
 C           -2.399147            0.338554            3.073919
 C           -3.666302            0.703135            3.682684
 C           -4.845341            0.336536            3.121882
 C           -4.868281           -0.432520            1.892040
 C           -6.183579           -0.782651            1.310357
 C           -6.460577           -2.191667            1.044979
 C           -7.631775           -2.590636            0.502887
 C           -8.661217           -1.612776            0.160774
 N           -9.803355           -2.007684           -0.385912
 C          -10.756862           -1.032128           -0.689445
 C          -11.973108           -1.421101           -1.271499
 C          -12.935038           -0.443115           -1.569211
 N          -14.146951           -0.833862           -2.144065
 C          -15.041627            0.108458           -2.412837
 C          -16.325600           -0.246271           -3.010638
 C          -17.238394            0.712843           -3.284233
 C          -16.976297            2.113514           -2.996378
 C          -15.809395            2.514179           -2.443112
 C          -14.775060            1.535738           -2.119168
 N          -13.630605            1.929302           -1.575074
 C          -12.674209            0.953765           -1.281665
 C          -11.456110            1.343032           -0.703684
 C          -10.494830            0.365252           -0.404960
 N           -9.282540            0.757827            0.167498
 C           -8.389023           -0.184681            0.442558
 C           -7.105214            0.174111            1.029245
 C           -3.704206           -0.808432            1.291629
 C           -2.420080           -0.441318            1.857505
 C           -1.225875           -0.814353            1.259197
 C            0.024013           -0.435937            1.819753
 C            1.254462           -0.808672            1.214591
 C            2.467975           -0.430388            1.769723
 C            3.732789           -0.792025            1.158657
 C            7.126375            0.201687            0.791447
 C            8.393349           -0.152820            0.166820
 N            9.280811            0.791129           -0.123623
 C           10.477895            0.402180           -0.729052
 C           11.433420            1.381339           -1.042907
 C           12.637119            0.995475           -1.651743
 N           13.588176            1.972397           -1.958827
 C           14.719295            1.582220           -2.531867
 C           15.747324            2.562340           -2.871028
 C           16.900462            2.165407           -3.454712
 H           18.107959            0.523478           -4.231671
 H           16.414402           -1.250849           -3.692426
 H           12.124493           -2.432210           -1.876575
 H            7.858708           -3.606032            0.008014
 H            5.710678           -2.885623            1.086524
 H            5.901971            0.626265            3.368649
 H            3.770955            1.296963            4.474424
 H            1.298034            1.317891            4.496562
 H           -1.161515            1.311851            4.541172
 H           -3.634102            1.281395            4.606583
 H           -5.800330            0.601911            3.575928
 H           -5.683183           -2.911624            1.310847
 H           -7.861383           -3.639866            0.299583
 H          -12.170363           -2.476354           -1.490707
 H          -16.498557           -1.305067           -3.216527
 H          -18.203263            0.466316           -3.730529
 H          -17.760793            2.830054           -3.245048
 H          -15.588827            3.560128           -2.216960
 H          -11.256931            2.398523           -0.488024
 H           -6.927085            1.236909            1.216045
 H           -3.703086           -1.382388            0.364740
 H           -1.231717           -1.405260            0.343305
 H            1.229932           -1.399509            0.298960
 H            3.700922           -1.365920            0.232272
 H            6.954238            1.263041            0.991515
 H           11.240514            2.435302           -0.814510
 H           15.533366            3.606493           -2.630679
 H           17.679778            2.883385           -3.715465

