94

 C           -9.072632            0.508628            3.783776
 C           -7.729631            0.955083            4.100364
 C           -6.833591            1.216581            3.118914
 C           -7.186620            1.059013            1.717491
 C           -8.544099            0.612757            1.399387
 C           -9.467840            0.344551            2.500479
 N           -8.975432            0.432725            0.152764
 C           -8.104532            0.680805           -0.906519
 C           -8.583336            0.481098           -2.214404
 C           -7.751429            0.713638           -3.315301
 C           -8.184464            0.523495           -4.669651
 C           -7.324472            0.769489           -5.713063
 C           -7.692708            0.599533           -7.108734
 C           -6.805243            0.857877           -8.098768
 C           -5.460199            1.311168           -7.796180
 C           -5.053189            1.489418           -6.518536
 C           -5.966244            1.227132           -5.406393
 N           -5.530267            1.413011           -4.162554
 C           -6.396871            1.163965           -3.098953
 C           -5.918373            1.361516           -1.790300
 C           -6.747626            1.125369           -0.687381
 C           -6.311724            1.300919            0.676166
 C           -4.914980            1.725435            0.936464
 C           -4.635593            3.143652            1.045129
 C           -3.375672            3.575779            1.302627
 C           -2.278830            2.638128            1.471546
 C           -0.985815            3.062152            1.736834
 C            0.073666            2.128261            1.896165
 C            1.404285            2.549111            2.165983
 C            2.428440            1.627486            2.319227
 C            3.795149            2.035616            2.596030
 C            4.782972            1.119649            2.756077
 C            4.491058           -0.296723            2.656626
 C            5.593764           -1.261357            2.885619
 C            6.423262           -1.662134            1.776424
 C            6.257346           -1.164609            0.478140
 C            7.093523           -1.600666           -0.566371
 N            6.887985           -1.073593           -1.841046
 C            7.667609           -1.479871           -2.840362
 C            7.447504           -0.924614           -4.175553
 C            8.219091           -1.314167           -5.216024
 C            9.280886           -2.287629           -5.039502
 C            9.529611           -2.835116           -3.825928
 C            8.740442           -2.462868           -2.663441
 C            8.950325           -2.985296           -1.409926
 C            8.131240           -2.570619           -0.307386
 C            8.301257           -3.066903            0.989512
 C            7.466647           -2.627615            2.033875
 N            7.681224           -3.156298            3.305056
 C            6.903154           -2.758315            4.309545
 C            7.137576           -3.324119            5.637091
 C            6.369768           -2.952540            6.687105
 C            5.300400           -1.986601            6.525264
 C            5.039478           -1.432972            5.317018
 C            5.820774           -1.787188            4.143248
 C            3.230065           -0.729196            2.381579
 C            2.144051            0.215236            2.203975
 C            0.850950           -0.208123            1.939355
 C           -0.206367            0.727195            1.780559
 C           -1.534895            0.304192            1.509053
 C           -2.559312            1.225271            1.354643
 C           -3.920305            0.807273            1.079307
 H           -9.748415            0.311248            4.616333
 H           -7.471409            1.071132            5.152329
 H           -5.820015            1.553580            3.345757
 H          -10.471165            0.010527            2.229153
 H           -9.612519            0.142099           -2.353484
 H           -9.205162            0.181039           -4.846438
 H           -8.705399            0.258329           -7.321771
 H           -7.070307            0.734560           -9.148387
 H           -4.792818            1.501510           -8.637215
 H           -4.047860            1.829057           -6.260918
 H           -4.887071            1.701993           -1.650306
 H           -5.464747            3.838310            0.911128
 H           -3.149367            4.638890            1.387988
 H           -0.764711            4.125938            1.824577
 H            1.609749            3.616341            2.249830
 H            3.998286            3.104287            2.669670
 H            5.812070            1.415104            2.960500
 H            5.474492           -0.431390            0.258050
 H            6.641513           -0.195210           -4.278820
 H            8.068284           -0.911115           -6.217897
 H            9.866001           -2.558634           -5.917825
 H           10.322943           -3.567616           -3.679363
 H            9.735831           -3.720149           -1.227174
 H            9.080508           -3.800227            1.209968
 H            7.949661           -4.048360            5.725628
 H            6.530165           -3.365986            7.683154
 H            4.718496           -1.725178            7.408351
 H            4.237108           -0.704242            5.184432
 H            3.001741           -1.791911            2.291806
 H            0.628292           -1.271618            1.848141
 H           -1.737563           -0.763556            1.420856
 H           -4.117824           -0.261723            0.991006

