94

 C           16.991179            3.848095            1.345388
 C           15.809892            3.908955            0.685766
 C           14.806535            2.871264            0.856035
 C           13.592677            2.883297            0.212379
 C           12.648385            1.825126            0.427667
 C           11.400016            1.790657           -0.203356
 C           10.511188            0.728041            0.042830
 N            9.279121            0.735957           -0.608827
 C            8.426324           -0.263179           -0.389447
 C            7.138291           -0.245235           -1.074047
 C            6.237621           -1.243803           -0.882851
 C            4.922271           -1.227354           -1.561875
 C            4.895377           -1.102486           -3.007165
 C            3.715547           -1.057972           -3.674626
 C            2.448750           -1.134282           -2.968562
 C            1.233418           -1.083984           -3.633343
 C            0.005291           -1.166849           -2.922961
 C           -1.247835           -1.125866           -3.591766
 C           -2.437940           -1.216854           -2.886670
 C           -3.729063           -1.188461           -3.550584
 C           -4.883699           -1.277793           -2.844730
 C           -4.859205           -1.400080           -1.398926
 C           -6.151201           -1.470919           -0.679905
 C           -6.360578           -2.565630            0.258977
 C           -7.517894           -2.678154            0.951884
 C           -8.593868           -1.716834            0.778897
 C           -9.790366           -1.788534            1.451542
 C          -10.811644           -0.808189            1.218913
 C          -12.050005           -0.836332            1.871464
 C          -13.017538            0.148399            1.599372
 N          -14.238534            0.080771            2.270264
 C          -15.163935            1.004955            2.021597
 C          -16.443018            0.929213            2.726753
 C          -17.406478            1.851254            2.499822
 C          -17.202005            2.935375            1.556937
 C          -16.037933            3.054697            0.875055
 C          -14.959284            2.099860            1.068756
 C          -13.759148            2.173141            0.403800
 C          -12.737144            1.195619            0.644540
 C          -11.499183            1.225386           -0.006807
 C          -10.532122            0.240057            0.265133
 N           -9.314525            0.309120           -0.409607
 C           -8.389805           -0.618806           -0.169121
 C           -7.120024           -0.540433           -0.882745
 C           -3.670374           -1.433756           -0.733521
 C           -2.411427           -1.346510           -1.447765
 C           -1.194787           -1.384251           -0.783633
 C            0.031254           -1.299701           -1.496004
 C            1.282758           -1.344934           -0.825330
 C            2.474321           -1.266336           -1.529787
 C            3.758596           -1.309691           -0.857844
 C            6.541621           -2.357212            0.006594
 C            7.721041           -2.418467            0.667957
 C            8.725175           -1.379636            0.510917
 C            9.937050           -1.392710            1.159283
 C           10.882248           -0.334057            0.948892
 C           12.131128           -0.298526            1.580660
 C           13.020500            0.763731            1.334258
 N           14.254784            0.758494            1.983908
 C           15.106405            1.757046            1.759980
 C           16.399387            1.747206            2.443511
 C           17.289482            2.745495            2.240599
 H           17.750975            4.620034            1.225915
 H           15.573094            4.730856            0.010269
 H           13.322708            3.690238           -0.470578
 H           11.099836            2.583556           -0.892577
 H            6.939464            0.606268           -1.729764
 H            5.849623           -1.049261           -3.531519
 H            3.682988           -0.963510           -4.760031
 H            1.204419           -0.979653           -4.717836
 H           -1.258832           -1.021825           -4.676624
 H           -3.735975           -1.093827           -4.636449
 H           -5.855631           -1.263654           -3.338314
 H           -5.554079           -3.290427            0.375017
 H           -7.681991           -3.492787            1.658067
 H           -9.988778           -2.586692            2.168705
 H          -12.280764           -1.620504            2.596295
 H          -16.570624            0.103693            3.429965
 H          -18.365570            1.809152            3.016883
 H          -18.017697            3.644907            1.420419
 H          -15.871354            3.863636            0.163881
 H          -13.558797            2.968743           -0.315470
 H          -11.267682            2.008983           -0.732201
 H           -6.992703            0.298485           -1.571682
 H           -3.630276           -1.515862            0.352537
 H           -1.164909           -1.479912            0.301430
 H            1.292555           -1.442400            0.259944
 H            3.758159           -1.397827            0.228490
 H            5.786942           -3.137273            0.111931
 H            7.956880           -3.246990            1.336653
 H           10.204807           -2.201548            1.841084
 H           12.430471           -1.091777            2.269647
 H           16.598265            0.906341            3.111091
 H           18.257509            2.753439            2.742501

