90

 C           12.313776            2.897308           -1.379419
 C           11.554066            3.802757           -0.683076
 C           10.280345            3.419762           -0.157190
 C            9.805859            2.097254           -0.358513
 C           10.619233            1.162854           -1.091220
 C           11.844700            1.572731           -1.584032
 C           10.125140           -0.210755           -1.300556
 C           10.866200           -1.147172           -1.998369
 C           10.382482           -2.467528           -2.196385
 C            9.161329           -2.842215           -1.696282
 C            8.361946           -1.903078           -0.971152
 C            8.840672           -0.582317           -0.768728
 C            8.025148            0.352668           -0.039465
 C            6.793341           -0.047987            0.441489
 C            6.314721           -1.373641            0.231318
 C            4.977326           -1.746383            0.747378
 C            4.878908           -2.848368            1.685662
 C            3.673642           -3.233499            2.174901
 C            2.449371           -2.563713            1.771865
 C            1.207598           -2.951341            2.251535
 C            0.021544           -2.284786            1.840024
 C           -1.258669           -2.669737            2.323269
 C           -2.407136           -2.012309            1.909262
 C           -3.726477           -2.386259            2.388970
 C           -4.837460           -1.722853            1.980745
 C           -4.734309           -0.614368            1.051473
 C           -5.966016            0.106458            0.655995
 C           -6.088537            1.456444            0.899451
 C           -7.265053            2.157474            0.496067
 C           -8.311289            1.459901           -0.161583
 C           -9.486613            2.182439           -0.570211
 C           -9.571836            3.539219           -0.315243
 C           -8.521666            4.230766            0.344804
 C           -7.393510            3.560563            0.744195
 C          -10.573316            1.457580           -1.253955
 C          -11.724718            2.103798           -1.665292
 C          -12.767144            1.400213           -2.324209
 C          -12.650373            0.055204           -2.567505
 C          -11.475447           -0.650819           -2.159008
 C          -10.430139            0.046599           -1.498739
 C           -9.252983           -0.674861           -1.092454
 C           -9.162733           -2.029329           -1.356427
 C          -10.211711           -2.720898           -2.017853
 C          -11.343547           -2.052683           -2.410657
 C           -8.166937            0.048526           -0.404620
 C           -7.017420           -0.600486            0.005117
 C           -3.519208           -0.235836            0.564956
 C           -2.306246           -0.916472            0.972615
 C           -1.063526           -0.532208            0.493023
 C            0.119727           -1.196778            0.911790
 C            1.397732           -0.805649            0.430471
 C            2.547301           -1.463782            0.839481
 C            3.857143           -1.081132            0.349223
 C            7.085215           -2.284128           -0.456282
 C            8.522034            1.724780            0.174162
 C            7.779226            2.659527            0.872017
 C            8.259589            3.981035            1.069544
 C            9.480003            4.357204            0.568576
 H           13.285216            3.176622           -1.786211
 H           11.904526            4.820665           -0.519920
 H           12.478485            0.882609           -2.143246
 H           11.841647           -0.888298           -2.413380
 H           10.999267           -3.172735           -2.753090
 H            8.779987           -3.851605           -1.842037
 H            6.159194            0.644733            0.999206
 H            5.802130           -3.344835            1.983682
 H            3.587297           -4.056721            2.883926
 H            1.124833           -3.780757            2.953809
 H           -1.323725           -3.495711            3.031410
 H           -3.789960           -3.218541            3.089872
 H           -5.829928           -1.992735            2.340943
 H           -5.294231            2.006256            1.403598
 H          -10.452316            4.108123           -0.618133
 H           -8.631196            5.299823            0.525734
 H           -6.581557            4.078786            1.252099
 H          -11.854932            3.173102           -1.490757
 H          -13.656649            1.949901           -2.630426
 H          -13.443774           -0.493909           -3.071887
 H           -8.277970           -2.596198           -1.060880
 H          -10.097497           -3.788202           -2.205382
 H          -12.154508           -2.573238           -2.917619
 H           -6.885578           -1.669977           -0.172301
 H           -3.425082            0.586992           -0.144018
 H           -0.979854            0.290774           -0.216599
 H            1.461336            0.025300           -0.271899
 H            3.912053           -0.251688           -0.356114
 H            6.729915           -3.299747           -0.627238
 H            6.804013            2.398052            1.287025
 H            7.639765            4.685103            1.624063
 H            9.857894            5.368165            0.713314

