90

 C          -11.167970           -2.011355            0.426509
 C          -10.077596           -2.822943            0.237615
 C           -8.758175           -2.272627            0.256876
 C           -8.577684           -0.876292            0.434534
 C           -9.729266           -0.062166            0.707356
 C          -10.992005           -0.626153            0.678760
 C           -9.525460            1.356297            1.043550
 C          -10.562786            2.126507            1.539915
 C          -10.384859            3.505196            1.819200
 C           -9.176971            4.106246            1.567630
 C           -8.085772            3.339626            1.055071
 C           -8.228797            1.945341            0.839080
 C           -7.095323            1.158414            0.401597
 C           -5.933227            1.826117            0.039850
 C           -4.730187            1.208138           -0.567615
 C           -4.804055            0.771181           -1.949652
 C           -3.703714            0.285358           -2.576417
 C           -2.431632            0.171235           -1.883893
 C           -1.294215           -0.310454           -2.512643
 C           -0.066103           -0.439280           -1.808914
 C            1.112280           -0.912186           -2.447082
 C            2.298443           -1.054565           -1.744035
 C            3.520769           -1.511832           -2.382155
 C            4.669392           -1.659727           -1.676087
 C            4.698758           -1.378689           -0.252429
 C            5.950622           -1.654716            0.492465
 C            7.127290           -0.923608            0.402520
 C            7.259267            0.347712           -0.340640
 C            6.171477            1.105188           -0.729543
 C            6.321316            2.265778           -1.537770
 C            7.563180            2.676649           -1.944656
 C            8.725456            1.970651           -1.501164
 C            8.579060            0.837835           -0.659126
 C            9.759362            0.227394           -0.113494
 C           11.008102            0.675915           -0.504713
 C           11.144597            1.762573           -1.406924
 C           10.031607            2.409654           -1.882187
 C            9.601722           -0.847719            0.879443
 C           10.684399           -1.309058            1.607883
 C           10.547296           -2.377733            2.529606
 C            9.331931           -2.994801            2.689440
 C            8.194128           -2.543029            1.952979
 C            8.301448           -1.429787            1.080984
 C            6.941847           -3.223335            2.075147
 C            5.867585           -2.806361            1.342020
 C            3.577362           -0.942030            0.387943
 C            2.337182           -0.739271           -0.333994
 C            1.199568           -0.256704            0.294632
 C           -0.014990           -0.083921           -0.421257
 C           -1.180443            0.432228            0.205821
 C           -2.367342            0.572232           -0.496682
 C           -3.558982            1.115984            0.123724
 C           -5.817169            3.243704            0.218885
 C           -6.845388            3.977545            0.738062
 C           -7.250458           -0.311793            0.374686
 C           -6.176439           -1.178588            0.315434
 C           -6.357005           -2.582828            0.180856
 C           -7.615060           -3.121390            0.120045
 H          -12.179062           -2.415481            0.400701
 H          -10.197242           -3.892599            0.073770
 H          -11.877964           -0.016528            0.859957
 H          -11.543919            1.685491            1.721846
 H          -11.221822            4.073253            2.223576
 H           -9.030453            5.169149            1.752159
 H           -5.766285            0.851048           -2.455933
 H           -3.741630           -0.037502           -3.616854
 H           -1.328435           -0.601947           -3.562151
 H            1.069098           -1.160305           -3.507361
 H            3.481320           -1.727984           -3.449837
 H            5.594959           -1.992179           -2.146581
 H            5.155869            0.846711           -0.430201
 H            5.424326            2.809210           -1.834153
 H            7.687495            3.544185           -2.589908
 H           11.913743            0.207072           -0.118242
 H           12.144871            2.078316           -1.700359
 H           10.123344            3.263940           -2.550880
 H           11.670448           -0.859547            1.481673
 H           11.420475           -2.701687            3.094720
 H            9.214659           -3.833307            3.373871
 H            6.870102           -4.079773            2.744286
 H            4.916332           -3.339498            1.394146
 H            3.584624           -0.730189            1.457099
 H            1.223945           -0.003599            1.354296
 H           -1.127027            0.719788            1.255584
 H           -3.488648            1.444001            1.160799
 H           -4.878007            3.722740           -0.064705
 H           -6.746473            5.049641            0.903018
 H           -5.147962           -0.822542            0.373471
 H           -5.471420           -3.214562            0.114621
 H           -7.765437           -4.190771           -0.014975

