96

 C          -14.122882           -0.933282            1.594526
 C          -13.524248            0.281830            1.613765
 C          -12.131320            0.438894            1.217944
 C          -11.505297            1.664682            1.230414
 C          -10.135153            1.803552            0.834591
 C           -9.493982            3.052337            0.846993
 C           -8.155017            3.176877            0.453802
 C           -7.458544            4.427502            0.450701
 C           -6.142570            4.491311            0.055071
 C           -5.394387            5.735330            0.032130
 C           -4.101034            5.756499           -0.368017
 C           -3.429399            4.540860           -0.771854
 C           -4.063643            3.337193           -0.772400
 C           -3.331452            2.112349           -1.167309
 C           -3.804170            1.338709           -2.299610
 C           -3.120857            0.244695           -2.720250
 C           -1.908012           -0.191092           -2.049823
 C           -1.190078           -1.300117           -2.470640
 C           -0.008337           -1.710845           -1.794862
 C            0.741495           -2.842817           -2.215242
 C            1.891926           -3.229582           -1.543867
 C            2.677411           -4.379822           -1.955845
 C            3.797615           -4.743940           -1.282349
 C            4.245359           -3.988005           -0.127151
 C            5.456815           -4.449373            0.587019
 C            6.596916           -3.531262            0.755901
 N            6.529049           -2.302551            0.249916
 C            7.609086           -1.436087            0.407208
 C            7.517442           -0.145146           -0.141867
 C            8.577691            0.761786           -0.003203
 C            8.506344            2.082909           -0.554799
 C            9.547378            2.972184           -0.414827
 C            9.488627            4.317816           -0.969466
 C           10.522891            5.179924           -0.821432
 C           11.719246            4.784683           -0.105116
 C           11.827510            3.545042            0.430571
 C           10.748325            2.574998            0.303816
 C           10.838779            1.310364            0.840162
 C            9.767835            0.367440            0.706889
 C            9.856603           -0.924216            1.250468
 C            8.801417           -1.836250            1.114426
 C            8.842666           -3.165055            1.646412
 C            7.774201           -4.016309            1.481600
 C            7.765428           -5.372793            1.999040
 C            6.691757           -6.176863            1.813033
 C            5.525230           -5.708254            1.097262
 C            3.546316           -2.895062            0.288828
 C            2.341049           -2.473269           -0.397600
 C            1.618255           -1.366984            0.022136
 C            0.439375           -0.961611           -0.657700
 C           -0.303796            0.172918           -0.235226
 C           -1.451381            0.565663           -0.905989
 C           -2.208322            1.731701           -0.495221
 C           -5.474894            3.254612           -0.361811
 N           -6.096602            2.077999           -0.373416
 C           -7.429253            2.003948            0.029720
 C           -8.067322            0.751099            0.019196
 C           -9.407265            0.632589            0.416193
 C          -10.078488           -0.634130            0.416404
 C          -11.395801           -0.744685            0.800102
 C          -12.091957           -2.024250            0.802363
 C          -13.389951           -2.112768            1.179654
 H          -15.163892           -1.062052            1.887869
 H          -14.062285            1.176848            1.923920
 H          -12.043917            2.559085            1.542973
 H          -10.044394            3.936919            1.167191
 H           -7.994358            5.323094            0.767611
 H           -5.912258            6.640837            0.346766
 H           -3.525975            6.681677           -0.395458
 H           -2.385051            4.622274           -1.079860
 H           -4.727824            1.659420           -2.782127
 H           -3.465126           -0.342614           -3.570696
 H           -1.525873           -1.875274           -3.332681
 H            0.396243           -3.406843           -3.080903
 H            2.336627           -4.936754           -2.827842
 H            4.396532           -5.598687           -1.593805
 H            6.608506            0.136762           -0.678889
 H            7.600283            2.366103           -1.091511
 H            8.582902            4.599863           -1.505545
 H           10.489192            6.187896           -1.232472
 H           12.520155            5.517479           -0.016281
 H           12.720912            3.234494            0.970991
 H           11.733042            1.000165            1.380334
 H           10.758357           -1.222282            1.785130
 H            9.737430           -3.484063            2.182215
 H            8.649078           -5.712374            2.538318
 H            6.669208           -7.196736            2.196436
 H            4.690216           -6.402516            0.987080
 H            3.883278           -2.299680            1.138588
 H            1.951921           -0.790617            0.884871
 H            0.045398            0.734678            0.630615
 H           -1.850058            2.287247            0.370618
 H           -7.501323           -0.126885           -0.301047
 H           -9.514553           -1.513339            0.103196
 H          -11.528046           -2.902463            0.489341
 H          -13.919570           -3.064432            1.183990

