96

 C          -17.100132            2.429494           -2.926554
 C          -17.326479            2.999751           -1.611754
 C          -16.392268            2.904536           -0.638016
 C          -15.125197            2.220123           -0.891423
 N          -14.230293            2.147473            0.092091
 C          -13.019897            1.496226           -0.143023
 C          -12.081377            1.424294            0.901343
 C          -10.851763            0.777967            0.709649
 C           -9.879761            0.690261            1.760313
 C           -8.675593            0.052570            1.567253
 C           -7.677548           -0.049514            2.623410
 C           -6.495828           -0.675878            2.415026
 C           -6.186916           -1.269414            1.122877
 C           -4.871708           -1.925418            0.949632
 C           -4.841217           -3.314073            0.530293
 C           -3.659465           -3.952650            0.341895
 C           -2.394637           -3.269722            0.551281
 C           -1.177629           -3.904135            0.356451
 C            0.048988           -3.218992            0.571244
 C            1.303726           -3.857991            0.379161
 C            2.492700           -3.178604            0.595367
 C            3.785455           -3.814199            0.409895
 C            4.939046           -3.131860            0.618656
 C            4.910219           -1.742477            1.035942
 C            6.197165           -1.038265            1.229821
 C            7.116380           -0.956647            0.231239
 C            8.372777           -0.251008            0.422168
 C            9.310451           -0.159716           -0.582013
 C           10.545645            0.537945           -0.383765
 C           11.504707            0.629941           -1.405399
 C           12.710512            1.313297           -1.201289
 C           13.717304            1.431484           -2.214302
 C           14.882714            2.114246           -1.956897
 C           15.946769            2.275280           -2.933170
 C           17.075009            2.958725           -2.624862
 C           17.254613            3.549773           -1.311988
 C           16.302142            3.436618           -0.358122
 C           15.062548            2.710898           -0.631307
 N           14.148657            2.621449            0.333070
 C           12.964454            1.930423            0.079225
 C           12.005688            1.841065            1.103529
 C           10.801309            1.154500            0.892777
 C            9.809610            1.048046            1.922989
 C            8.630630            0.370473            1.711456
 C            7.613232            0.248294            2.746713
 C            6.457552           -0.419155            2.520668
 C            3.720381           -1.108083            1.231547
 C            2.462695           -1.797232            1.019162
 C            1.244363           -1.162955            1.209491
 C            0.019648           -1.849553            0.994063
 C           -1.233710           -1.209387            1.188004
 C           -2.423771           -1.888599            0.976269
 C           -3.710093           -1.247399            1.167230
 C           -7.087138           -1.206969            0.105876
 C           -8.370015           -0.544973            0.277081
 C           -9.288303           -0.471255           -0.746248
 C          -10.549010            0.185043           -0.567745
 C          -11.487949            0.259675           -1.609241
 C          -12.718815            0.902731           -1.424413
 C          -13.706429            1.001778           -2.458090
 C          -14.898054            1.644836           -2.219142
 C          -15.945088            1.784132           -3.216910
 H          -17.892149            2.540618           -3.665965
 H          -18.276309            3.506368           -1.439320
 H          -16.534331            3.323218            0.360143
 H          -12.327019            1.879662            1.863241
 H          -10.121470            1.144575            2.721757
 H           -7.920688            0.397425            3.587589
 H           -5.746199           -0.760609            3.201828
 H           -5.794371           -3.820935            0.380771
 H           -3.624170           -4.996271            0.029304
 H           -1.146916           -4.944718            0.033941
 H            1.317842           -4.899073            0.057109
 H            3.794872           -4.858698            0.098400
 H            5.912891           -3.603253            0.487330
 H            6.936285           -1.408814           -0.744196
 H            9.128976           -0.619657           -1.553152
 H           11.307446            0.162812           -2.370410
 H           13.536587            0.970070           -3.185692
 H           15.799647            1.826830           -3.915242
 H           17.879338            3.086350           -3.348155
 H           18.184350            4.087379           -1.124529
 H           16.408861            3.870455            0.638001
 H           12.215575            2.314762            2.065072
 H           10.015651            1.520513            2.884018
 H            7.820123            0.714605            3.710213
 H            5.693779           -0.519049            3.291875
 H            3.680523           -0.064039            1.542718
 H            1.212072           -0.121344            1.528648
 H           -1.245824           -0.167531            1.507763
 H           -3.714843           -0.203338            1.480834
 H           -6.871489           -1.641836           -0.870227
 H           -9.071442           -0.913749           -1.718269
 H          -11.255158           -0.189401           -2.574936
 H          -13.490199            0.557822           -3.430393
 H          -15.762945            1.351330           -4.200155

