86

 C           10.333221            4.888310            1.499076
 C           10.714573            4.112657            0.469548
 C            9.787553            3.015871            0.171810
 C            9.886240            2.063039           -0.799835
 C            8.855455            1.060036           -0.924755
 C            7.733740            1.074687           -0.026326
 C            7.653168            2.096316            0.993614
 C            8.646702            3.014635            1.070678
 S            8.801466            4.351678            2.202904
 C            6.734809            0.098869           -0.153370
 C            6.805757           -0.893323           -1.141833
 C            7.929428           -0.910009           -2.039194
 C            8.928740            0.066693           -1.911597
 C            8.022648           -1.923072           -3.062631
 C            7.040878           -2.863470           -3.173717
 C            6.939098           -3.965045           -4.136354
 C            5.836280           -4.719538           -3.988819
 S            4.816562           -4.154501           -2.658262
 C            5.910445           -2.836941           -2.265967
 C            5.770876           -1.902351           -1.286923
 C            4.586203           -1.893669           -0.399946
 C            4.628986           -2.678411            0.818482
 C            3.558828           -2.710707            1.651727
 C            2.347725           -1.966995            1.350495
 C            1.240991           -1.994275            2.185334
 C            0.065166           -1.261170            1.868820
 C           -1.077166           -1.276891            2.714532
 C           -2.217256           -0.557409            2.390607
 C           -3.395206           -0.555972            3.241017
 C           -4.497955            0.162868            2.912854
 C           -4.524357            0.950617            1.695878
 C           -5.740669            1.736331            1.390071
 C           -5.878271            3.017415            1.827552
 S           -4.746503            3.950393            2.794612
 C           -5.791230            5.377962            2.796063
 C           -6.929052            5.172679            2.110190
 C           -7.039995            3.831555            1.527411
 C           -8.055072            3.314892            0.776999
 C           -7.965330            1.959465            0.289837
 C           -8.998944            1.412306           -0.485190
 C           -8.929963            0.098057           -0.969024
 C           -7.776600           -0.702717           -0.662295
 C           -7.700300           -2.058543           -1.158443
 C           -8.727800           -2.534941           -1.902443
 S           -8.894868           -4.130173           -2.624027
 C          -10.474088           -3.747335           -3.323286
 C          -10.862161           -2.492658           -3.036502
 C           -9.901412           -1.741244           -2.221898
 C           -9.996875           -0.458527           -1.766493
 C           -6.743161           -0.156278            0.112408
 C           -6.810159            1.158807            0.594661
 C           -3.449530            0.974206            0.860925
 C           -2.249748            0.223194            1.174772
 C           -1.143153            0.246300            0.340881
 C            0.030275           -0.485354            0.664032
 C            1.169809           -0.463046           -0.182975
 C            2.310093           -1.182654            0.137270
 C            3.476803           -1.174129           -0.723264
 H           10.828753            5.749477            1.917532
 H           11.614651            4.242725           -0.118763
 H           10.727186            2.037031           -1.490027
 H            6.797661            2.097471            1.667907
 H            5.883476            0.113845            0.531955
 H            9.779101            0.053369           -2.594024
 H            8.881094           -1.914053           -3.731384
 H            7.710360           -4.113274           -4.881946
 H            5.524259           -5.579210           -4.559551
 H            5.540538           -3.236916            1.031402
 H            3.575150           -3.297948            2.569776
 H            1.258932           -2.584552            3.101187
 H           -1.042296           -1.867255            3.629841
 H           -3.359534           -1.151299            4.153286
 H           -5.385386            0.175916            3.545678
 H           -5.465547            6.265023            3.315058
 H           -7.721308            5.897462            1.969763
 H           -8.938101            3.901682            0.531720
 H           -9.873523            2.021174           -0.716289
 H           -6.820773           -2.655379           -0.920119
 H          -10.989009           -4.500318           -3.897709
 H          -11.789496           -2.031233           -3.353144
 H          -10.862167            0.162754           -1.988982
 H           -5.867947           -0.768848            0.343422
 H           -3.458127            1.561590           -0.057837
 H           -1.160383            0.832176           -0.578222
 H            1.133971            0.130950           -1.096310
 H            3.432672           -0.580547           -1.637014

