78

 C           -9.576724           -3.880928           -0.785858
 C          -10.352968           -3.059438            0.034642
 C           -9.897911           -1.779279            0.388660
 C           -8.637651           -1.328970           -0.093062
 C           -7.854727           -2.174507           -0.926064
 C           -8.338988           -3.448112           -1.265961
 C           -6.567932           -1.694203           -1.392311
 C           -6.101162           -0.464864           -1.048251
 C           -4.764761           -0.025817           -1.517878
 C           -4.663096            0.586764           -2.827984
 C           -3.457253            0.976821           -3.311824
 C           -2.241064            0.789449           -2.539643
 C           -0.997890            1.161192           -3.027612
 C            0.181002            0.960795           -2.259472
 C            1.463987            1.320142           -2.754145
 C            2.603456            1.137338           -1.985981
 C            3.923007            1.506648           -2.468440
 C            5.024658            1.344361           -1.693532
 C            4.907647            0.790374           -0.358857
 C            6.136697            0.667105            0.461932
 C            6.531276            1.703660            1.247663
 C            7.709547            1.611858            2.088597
 C            8.118766            2.673979            2.911310
 C            9.251266            2.542862            3.717548
 C            9.994669            1.360466            3.719988
 C            9.613438            0.282485            2.905417
 C            8.460843            0.404660            2.080976
 C            8.051874           -0.695108            1.238187
 C            8.810352           -1.899201            1.231020
 C            8.409235           -2.962193            0.406511
 C            7.275460           -2.838122           -0.398620
 C            6.522474           -1.662258           -0.395599
 C            6.894358           -0.580355            0.418433
 C            9.983407           -1.992950            2.084361
 C           10.362714           -0.962484            2.877291
 C            3.695645            0.410289            0.130134
 C            2.491429            0.569413           -0.661711
 C            1.247518            0.199274           -0.174789
 C            0.073273            0.381620           -0.952817
 C           -1.205590            0.003469           -0.463838
 C           -2.346472            0.190853           -1.228380
 C           -3.656009           -0.206697           -0.749305
 C           -6.886853            0.434545           -0.207867
 C           -6.441222            1.717261            0.149124
 C           -7.225798            2.539689            0.960203
 C           -8.465500            2.104253            1.431948
 C           -8.942320            0.828212            1.092641
 C           -8.151655           -0.016055            0.263679
 C          -10.226659            0.340008            1.567102
 C          -10.678097           -0.893316            1.236307
 H           -9.941283           -4.872098           -1.054736
 H          -11.314652           -3.413607            0.401678
 H           -7.746778           -4.100969           -1.905054
 H           -5.979980           -2.360465           -2.025389
 H           -5.581790            0.719170           -3.399201
 H           -3.364934            1.438946           -4.294340
 H           -0.909268            1.616510           -4.013717
 H            1.539255            1.743938           -3.755298
 H            3.994922            1.920986           -3.473701
 H            6.019212            1.620899           -2.043199
 H            5.964641            2.635701            1.272826
 H            7.550020            3.602325            2.921475
 H            9.558377            3.373273            4.353047
 H           10.873261            1.274346            4.356980
 H            8.984046           -3.886945            0.394693
 H            6.973029           -3.668567           -1.036308
 H            5.638548           -1.585554           -1.030544
 H           10.546501           -2.926002            2.062461
 H           11.241312           -1.033678            3.518250
 H            3.597126           -0.017230            1.128237
 H            1.155232           -0.236367            0.819978
 H           -1.277084           -0.442479            0.528074
 H           -3.721627           -0.658364            0.240845
 H           -5.474875            2.075774           -0.208802
 H           -6.864737            3.532516            1.228223
 H           -9.064492            2.756874            2.065210
 H          -10.813186            1.004997            2.201124
 H          -11.640190           -1.259819            1.593817

