110

 C           20.092503           -2.214388           -2.356623
 C           19.037809           -1.478886           -2.778135
 C           17.778507           -1.475289           -2.041785
 C           16.699585           -0.736667           -2.454183
 C           15.461191           -0.741676           -1.718151
 C           14.362080            0.004376           -2.130070
 C           13.148302           -0.008568           -1.397348
 C           12.021680            0.747610           -1.808078
 C           10.835758            0.728489           -1.081109
 C            9.683635            1.493180           -1.486161
 C            8.519685            1.468689           -0.761802
 C            7.345453            2.238553           -1.157080
 C            6.201750            2.197478           -0.436866
 C            6.108381            1.380199            0.765729
 C            4.824466            1.362507            1.501353
 C            4.823919            1.745005            2.900938
 C            3.674704            1.725300            3.621158
 C            2.417131            1.319587            3.018543
 C            1.235445            1.282176            3.742435
 C            0.015338            0.882005            3.133821
 C           -1.202976            0.837564            3.864218
 C           -2.386032            0.444441            3.258271
 C           -3.641300            0.390139            3.986877
 C           -4.791343            0.010647            3.376201
 C           -4.796193           -0.354575            1.971907
 C           -6.080985           -0.742988            1.348698
 C           -6.165467           -2.044594            0.699104
 C           -7.310033           -2.445871            0.101398
 C           -8.495354           -1.595791            0.082143
 C           -9.661232           -1.985919           -0.524720
 C          -10.825024           -1.135989           -0.531271
 C          -12.013443           -1.523683           -1.141193
 C          -13.152007           -0.678515           -1.137908
 C          -14.368577           -1.064389           -1.754903
 C          -15.479519           -0.227282           -1.745692
 C          -16.720984           -0.608379           -2.368989
 C          -17.811591            0.222572           -2.355769
 C          -19.074243           -0.151604           -2.983113
 C          -20.140649            0.681104           -2.960121
 C          -20.057673            1.975301           -2.308287
 C          -18.912224            2.376498           -1.709732
 C          -17.728098            1.524504           -1.699897
 C          -16.559160            1.913946           -1.098225
 C          -15.397054            1.062675           -1.095741
 C          -14.207877            1.450392           -0.487485
 C          -13.070693            0.604145           -0.491254
 C          -11.855046            0.990874            0.126769
 C          -10.744302            0.153916            0.119047
 C           -9.505148            0.537001            0.745248
 C           -8.413802           -0.293458            0.736711
 C           -7.156714            0.086184            1.365907
 C           -3.640427           -0.327312            1.250816
 C           -2.388117            0.074444            1.861213
 C           -1.205687            0.113516            1.138182
 C            0.013273            0.513489            1.748579
 C            1.230197            0.555728            1.017057
 C            2.415048            0.946170            1.622491
 C            3.665949            0.986529            0.890786
 C            7.173990            0.649087            1.183806
 C            8.428976            0.653424            0.445652
 C            9.509720           -0.085056            0.855077
 C           10.745928           -0.077909            0.116565
 C           11.845463           -0.824308            0.527358
 C           13.057866           -0.810502           -0.206298
 C           14.183455           -1.567951            0.205110
 C           15.369508           -1.548366           -0.520522
 C           16.519695           -2.313855           -0.112360
 C           17.685635           -2.289571           -0.833219
 C           18.857418           -3.060226           -0.431613
 C           20.000036           -3.024177           -1.155643
 H           21.036480           -2.223806           -2.899374
 H           19.091523           -0.866887           -3.677841
 H           16.752701           -0.124532           -3.354166
 H           14.424835            0.613210           -3.031709
 H           12.096911            1.351769           -2.711901
 H            9.765683            2.094741           -2.391317
 H            7.427993            2.848711           -2.056641
 H            5.321437            2.771848           -0.724573
 H            5.770907            2.051847            3.344659
 H            3.661001            2.013559            4.672176
 H            1.228787            1.560473            4.796097
 H           -1.193212            1.120262            4.916685
 H           -3.624811            0.664534            5.041565
 H           -5.736148           -0.037485            3.917324
 H           -5.277804           -2.676503            0.720676
 H           -7.385350           -3.418680           -0.384661
 H           -9.736592           -2.954148           -1.019395
 H          -12.082150           -2.493531           -1.633306
 H          -14.424726           -2.037153           -2.242845
 H          -16.767304           -1.583068           -2.854043
 H          -19.120985           -1.125889           -3.468320
 H          -21.087402            0.411004           -3.425319
 H          -20.947063            2.603592           -2.321059
 H          -18.834690            3.344870           -1.216679
 H          -16.480566            2.882251           -0.604429
 H          -14.138530            2.420594            0.003880
 H          -11.800283            1.964001            0.614367
 H           -9.461014            1.512597            1.228861
 H           -7.110181            1.065613            1.842320
 H           -3.626531           -0.596338            0.194613
 H           -1.197393           -0.164046            0.084436
 H            1.219036            0.273392           -0.035396
 H            3.649191            0.695630           -0.159571
 H            7.120154            0.028279            2.078249
 H            9.458588           -0.699172            1.753863
 H           11.783561           -1.434419            1.428244
 H           14.106943           -2.173471            1.107861
 H           16.434075           -2.916216            0.791730
 H           18.772795           -3.663208            0.471733
 H           20.879928           -3.596026           -0.864616

