110

 C           15.533410            1.343536           -2.951777
 C           15.014529            1.698451           -1.753454
 C           13.674798            1.278105           -1.357470
 C           13.132109            1.628156           -0.148136
 C           11.807996            1.205210            0.230680
 C           11.251206            1.555181            1.455770
 C            9.948275            1.130335            1.819064
 C            9.374499            1.480622            3.066460
 C            8.096179            1.057379            3.415013
 C            7.503101            1.401617            4.680646
 C            6.242181            0.981322            5.018506
 C            5.646899            1.323134            6.304931
 C            4.403690            0.901897            6.632209
 C            3.622919            0.107344            5.706643
 C            4.119931           -0.238528            4.490890
 C            3.293589           -1.032802            3.549907
 C            3.353850           -2.479177            3.635985
 C            2.584721           -3.248948            2.826148
 C            1.682026           -2.651713            1.857049
 C            0.869340           -3.421865            1.039637
 C           -0.014282           -2.817419            0.104549
 C           -0.859122           -3.593673           -0.734149
 C           -1.711784           -2.990480           -1.645994
 C           -2.575912           -3.765779           -2.519099
 C           -3.386940           -3.159689           -3.421882
 C           -3.412911           -1.714050           -3.533128
 C           -4.286106           -1.106118           -4.566081
 C           -5.604871           -0.599698           -4.175518
 C           -6.084413           -0.694821           -2.894392
 C           -7.382646           -0.184733           -2.534564
 C           -7.872837           -0.280855           -1.236079
 C           -9.150595            0.228512           -0.893760
 C           -9.659874            0.136733            0.426365
 C          -10.914853            0.640123            0.751486
 C          -11.443080            0.552319            2.088862
 C          -12.682163            1.048984            2.401339
 C          -13.228476            0.964950            3.751307
 C          -14.453919            1.459520            4.042330
 C          -15.262253            2.090603            3.015210
 C          -14.807732            2.197673            1.745122
 C          -13.495405            1.683838            1.367976
 C          -13.018098            1.782613            0.086580
 C          -11.720351            1.269881           -0.272335
 C          -11.229565            1.365305           -1.569781
 C           -9.951526            0.855201           -1.911521
 C           -9.444327            0.947063           -3.231453
 C           -8.189444            0.442935           -3.557138
 C           -7.663561            0.524946           -4.894560
 C           -6.425538            0.025768           -5.209224
 C           -5.900001            0.099673           -6.567288
 C           -4.681008           -0.401837           -6.871670
 C           -3.856401           -1.015740           -5.851463
 C           -2.637103           -0.944020           -2.721670
 C           -1.748841           -1.549245           -1.748070
 C           -0.934195           -0.780834           -0.930572
 C           -0.054523           -1.388050            0.005048
 C            0.785621           -0.609061            0.845220
 C            1.636583           -1.210285            1.759631
 C            2.481004           -0.427227            2.641306
 C            5.466403            0.171546            4.082857
 C            6.009480           -0.173674            2.872007
 C            7.333219            0.248113            2.491114
 C            7.888459           -0.101319            1.264256
 C            9.190940            0.323271            0.899800
 C            9.766929           -0.026577           -0.347736
 C           11.046300            0.394457           -0.694500
 C           11.642751            0.044328           -1.958212
 C           12.905684            0.460943           -2.291707
 C           13.520878            0.112251           -3.567587
 C           14.768738            0.531659           -3.880630
 H           16.532082            1.652156           -3.257148
 H           15.575941            2.307502           -1.045775
 H           13.692142            2.237898            0.560461
 H           11.817875            2.166354            2.157711
 H            9.953280            2.092513            3.757835
 H            8.090919            2.010063            5.367632
 H            6.244192            1.928142            6.986480
 H            3.949851            1.147151            7.591581
 H            2.623374           -0.196049            6.017832
 H            4.032804           -2.916180            4.367898
 H            2.618602           -4.336974            2.881225
 H            0.897304           -4.509362            1.106048
 H           -0.825679           -4.679790           -0.650038
 H           -2.546308           -4.851244           -2.425016
 H           -4.037676           -3.731290           -4.083109
 H           -5.488591           -1.163447           -2.108006
 H           -7.270504           -0.755290           -0.461142
 H           -9.048767           -0.339080            1.193277
 H          -10.824106            0.075661            2.848658
 H          -12.609361            0.488527            4.510526
 H          -14.870839            1.401515            5.046611
 H          -16.240222            2.470456            3.307035
 H          -15.402646            2.668608            0.963413
 H          -13.611863            2.253477           -0.696436
 H          -11.829787            1.838223           -2.346503
 H          -10.056060            1.422429           -3.997647
 H           -8.284000            0.997745           -5.655521
 H           -6.529046            0.572100           -7.321137
 H           -4.279679           -0.357127           -7.883324
 H           -2.878727           -1.393582           -6.150326
 H           -2.655924            0.144104           -2.787222
 H           -0.958107            0.306913           -0.998120
 H            0.749070            0.477159            0.761017
 H            2.436366            0.658833            2.557446
 H            5.446448           -0.780897            2.159889
 H            7.319063           -0.712606            0.563992
 H            9.188263           -0.636944           -1.040873
 H           11.056019           -0.565584           -2.644670
 H           12.934075           -0.497438           -4.253514
 H           15.236544            0.277074           -4.830441

