98

 C            4.541532           -2.027354           -5.828981
 C            4.327237           -0.713902           -6.353052
 C            4.092574            0.338951           -5.510541
 C            4.061092            0.141091           -4.088137
 C            3.826051            1.216550           -3.191862
 C            3.803259            1.023821           -1.818971
 C            4.021794           -0.299502           -1.298391
 C            4.245321           -1.360486           -2.162141
 C            4.272995           -1.165232           -3.567485
 C            4.513837           -2.249001           -4.478656
 C            4.022456           -0.505444            0.143840
 C            3.820091            0.512280            1.010881
 C            3.892850            0.263396            2.473774
 C            5.084796            0.400553            3.120423
 C            5.194969            0.139562            4.534290
 C            4.111154           -0.253241            5.249890
 C            2.816906           -0.416743            4.612125
 C            1.707878           -0.829108            5.334545
 C            0.440733           -0.979595            4.711841
 C           -0.699458           -1.410524            5.440333
 C           -1.933715           -1.547419            4.824372
 C           -3.097711           -1.999519            5.565658
 C           -4.305141           -2.120823            4.958778
 C           -4.459403           -1.798288            3.561809
 C           -3.398783           -1.370600            2.820370
 C           -3.599680           -1.016485            1.391579
 C           -3.939115            0.248238            1.053828
 C           -4.206142            0.631076           -0.326125
 C           -4.568024            1.932184           -0.639047
 C           -4.854528            2.309206           -1.976782
 C           -5.243731            3.648480           -2.319955
 C           -5.520228            3.979633           -3.618851
 C           -5.421735            2.997949           -4.654361
 C           -5.051116            1.713825           -4.359449
 C           -4.758688            1.332336           -3.005785
 C           -4.380809            0.005524           -2.671231
 C           -4.107305           -0.361867           -1.362480
 C           -3.724461           -1.736546           -1.002839
 C           -3.613387           -2.729196           -1.964764
 C           -3.248056           -4.057500           -1.624149
 C           -3.144091           -5.090681           -2.616539
 C           -2.789547           -6.363078           -2.257695
 C           -2.513545           -6.681279           -0.890714
 C           -2.603650           -5.718161            0.077713
 C           -2.978881           -4.374934           -0.265002
 C           -3.092569           -3.356595            0.717072
 C           -3.461920           -2.065526            0.374972
 C           -2.074821           -1.235897            3.419006
 C           -0.964325           -0.823350            2.697726
 C            0.309522           -0.690551            3.314929
 C            1.456595           -0.278992            2.583022
 C            2.692949           -0.144069            3.197176
 C            3.564213            1.877287            0.537123
 C            3.328162            2.915739            1.423994
 C            3.098111            4.238629            0.964673
 C            2.857517            5.324117            1.873889
 C            2.648913            6.591347            1.400724
 C            2.665647            6.852208           -0.005656
 C            2.887246            5.837902           -0.897450
 C            3.109740            4.496894           -0.433083
 C            3.340809            3.424003           -1.332526
 C            3.564903            2.132122           -0.880694
 H            4.726249           -2.841448           -6.528032
 H            4.354911           -0.574803           -7.432661
 H            3.926390            1.342242           -5.899650
 H            3.661672            2.211638           -3.609994
 H            4.405407           -2.364101           -1.768362
 H            4.673581           -3.245203           -4.069168
 H            4.204971           -1.520899            0.501091
 H            5.983699            0.708292            2.586090
 H            6.171941            0.265103            5.000087
 H            4.177464           -0.457496            6.317730
 H            1.796958           -1.044829            6.398658
 H           -0.588889           -1.634402            6.500735
 H           -2.964359           -2.235562            6.620591
 H           -5.186638           -2.458262            5.503037
 H           -5.449911           -1.904946            3.119446
 H           -4.034594            1.026748            1.813328
 H           -4.639023            2.685500            0.145436
 H           -5.313487            4.388348           -1.524106
 H           -5.819527            4.991040           -3.889104
 H           -5.647568            3.297204           -5.676673
 H           -4.971558            0.959599           -5.140733
 H           -4.309771           -0.730116           -3.474843
 H           -3.808453           -2.499709           -3.014274
 H           -3.353796           -4.837336           -3.654518
 H           -2.710597           -7.154667           -3.001286
 H           -2.231217           -7.703037           -0.642300
 H           -2.394021           -5.948187            1.121642
 H           -2.883063           -3.611867            1.758479
 H           -1.055720           -0.593187            1.633118
 H            1.347689           -0.067763            1.516140
 H            3.316536            2.728783            2.500322
 H            2.845162            5.112825            2.942446
 H            2.466347            7.421877            2.080673
 H            2.498163            7.872788           -0.346515
 H            2.899655            6.025123           -1.969998
 H            3.338208            3.637194           -2.403392

