62

 C           -3.814953            1.864006            4.977724
 C           -4.063343            0.709588            4.278743
 C           -3.949437            0.687990            2.852288
 C           -4.211351           -0.498280            2.094657
 C           -4.126294           -0.485885            0.726529
 C           -3.770830            0.716463            0.037245
 C           -3.756754            0.710479           -1.445891
 C           -4.920157            0.914116           -2.126147
 C           -4.943016            0.928552           -3.567660
 C           -3.802006            0.741817           -4.277565
 C           -2.535130            0.514875           -3.605184
 C           -1.365880            0.322318           -4.324511
 C           -0.129062            0.091402           -3.666179
 C            1.075143           -0.102265           -4.392990
 C            2.276719           -0.331306           -3.740481
 C            3.509524           -0.522466           -4.483371
 C            4.681617           -0.751803           -3.839585
 C            4.726530           -0.816174           -2.400041
 C            3.598288           -0.642148           -1.654973
 C            3.685263           -0.718422           -0.176339
 C            3.777441            0.495767            0.575063
 C            3.928310            0.455024            1.936969
 C            3.995052           -0.798191            2.626490
 C            4.186342           -0.868430            4.043033
 C            4.252823           -2.084623            4.675328
 C            4.125062           -3.293451            3.930154
 C            3.940325           -3.255767            2.571117
 C            3.877894           -2.001631            1.883597
 C            3.719712           -1.935870            0.463853
 C            2.313049           -0.383763           -2.295555
 C            1.141287           -0.193927           -1.578212
 C           -0.095532            0.051999           -2.234520
 C           -1.300302            0.259729           -1.508884
 C           -2.503192            0.490280           -2.159421
 C           -3.487974            1.863782            0.742047
 C           -3.576047            1.874716            2.169352
 C           -3.313583            3.061838            2.925417
 C           -3.433324            3.054650            4.292191
 H           -3.906110            1.892048            6.062281
 H           -4.354031           -0.204880            4.793661
 H           -4.483996           -1.408470            2.627886
 H           -4.328425           -1.381694            0.140032
 H           -5.861001            1.075601           -1.600309
 H           -5.900744            1.096068           -4.058979
 H           -3.800882            0.755184           -5.366414
 H           -1.382344            0.345317           -5.413598
 H            1.040492           -0.068263           -5.481375
 H            3.457322           -0.474459           -5.569997
 H            5.614302           -0.893854           -4.384202
 H            5.690306           -1.007905           -1.928694
 H            3.731695            1.443828            0.039744
 H            4.004743            1.374068            2.517240
 H            4.282089            0.059792            4.604382
 H            4.405730           -2.148166            5.751434
 H            4.178724           -4.242659            4.460872
 H            3.841725           -4.173557            1.993247
 H            3.635557           -2.864408           -0.100047
 H            1.156090           -0.233910           -0.486575
 H           -1.265246            0.235146           -0.417262
 H           -3.204455            2.779891            0.224474
 H           -3.022259            3.966111            2.393026
 H           -3.241297            3.954084            4.875083

