94

 C            2.420073           -3.916608            4.356682
 C            2.550374           -4.507874            3.040797
 C            2.963375           -3.765165            1.986310
 C            3.298979           -2.354557            2.135475
 C            3.178248           -1.766146            3.462185
 C            2.715346           -2.610228            4.556177
 C            3.500437           -0.445711            3.675767
 C            3.964979            0.370825            2.596197
 N            4.304613            1.668940            2.837388
 C            4.741807            2.417082            1.791557
 C            5.124854            3.785219            1.996645
 C            5.560617            4.552528            0.942819
 C            5.959856            5.942484            1.127814
 C            6.371132            6.697441            0.081891
 C            6.428600            6.142457           -1.256784
 C            6.081145            4.854472           -1.486730
 C            5.633175            3.989694           -0.401961
 C            5.283165            2.680207           -0.627917
 C            4.834070            1.849843            0.454128
 N            4.504892            0.554460            0.216720
 C            4.074708           -0.201245            1.264445
 C            3.726835           -1.588416            1.064490
 C            3.865426           -2.160120           -0.297583
 C            5.104374           -2.448057           -0.787095
 C            5.264883           -3.018192           -2.101744
 C            4.183768           -3.284693           -2.877091
 C            2.840402           -2.998233           -2.406282
 C            1.730268           -3.276466           -3.188808
 C            0.417329           -2.993368           -2.727615
 C           -0.729846           -3.290462           -3.509632
 C           -2.006750           -3.021239           -3.040715
 C           -3.180101           -3.328366           -3.838689
 C           -4.427219           -3.068371           -3.371384
 C           -4.616120           -2.481981           -2.067939
 C           -3.548305           -2.174498           -1.278055
 C           -3.774763           -1.579423            0.062027
 C           -4.221399           -0.207567            0.134531
 N           -4.414426            0.510524           -1.005994
 C           -4.855808            1.789195           -0.891061
 C           -5.068464            2.577606           -2.072147
 C           -5.535770            3.866239           -1.974355
 C           -5.756098            4.686408           -3.159293
 C           -6.224831            5.952165           -3.056761
 C           -6.524790            6.528370           -1.760063
 C           -6.334670            5.815502           -0.624734
 C           -5.824540            4.450561           -0.668478
 C           -5.617122            3.725014            0.480483
 C           -5.124346            2.378665            0.412341
 N           -4.920612            1.669737            1.552917
 C           -4.470285            0.388398            1.436828
 C           -4.248781           -0.388117            2.618383
 C           -3.828628           -1.694779            2.524989
 C           -3.612645           -2.498247            3.721437
 C           -3.228013           -3.793722            3.635509
 C           -3.012943           -4.413026            2.343915
 C           -3.183493           -3.707145            1.200899
 C           -3.596289           -2.309282            1.225064
 C           -2.184038           -2.423825           -1.735491
 C           -1.067569           -2.112815           -0.973824
 C            0.245295           -2.395140           -1.437925
 C            1.391459           -2.110224           -0.647439
 C            2.668489           -2.411133           -1.095599
 H            2.078755           -4.556703            5.169300
 H            2.304492           -5.563474            2.931980
 H            3.058515           -4.201489            0.988941
 H            2.619186           -2.146670            5.538106
 H            3.417203            0.015833            4.662649
 H            5.054907            4.183328            3.011576
 H            5.913143            6.345553            2.139611
 H            6.670067            7.737343            0.210675
 H            6.759292            6.797654           -2.062050
 H            6.121024            4.421535           -2.486632
 H            5.329640            2.231665           -1.623586
 H            6.002402           -2.245375           -0.203787
 H            6.278110           -3.221926           -2.445563
 H            4.289307           -3.713935           -3.872333
 H            1.853145           -3.719121           -4.176538
 H           -0.590594           -3.737507           -4.493219
 H           -3.021355           -3.768287           -4.822118
 H           -5.315614           -3.288316           -3.961851
 H           -5.636010           -2.281037           -1.740195
 H           -4.844054            2.114403           -3.036354
 H           -5.526721            4.238453           -4.126512
 H           -6.390152            6.573328           -3.936477
 H           -6.906069            7.548771           -1.736798
 H           -6.556566            6.235018            0.356638
 H           -5.817864            4.140682            1.470611
 H           -4.429686            0.091896            3.583154
 H           -3.775171           -2.013655            4.684245
 H           -3.069548           -4.403807            4.523948
 H           -2.710104           -5.459331            2.326842
 H           -3.017909           -4.165331            0.222733
 H           -1.182466           -1.642732            0.005119
 H            1.246118           -1.646562            0.330462

