94

 C           10.470872           -0.418769            4.143430
 C           10.384591            0.967675            3.727824
 C            9.506400            1.349967            2.770985
 C            8.624291            0.383593            2.129027
 C            7.729125            0.765077            1.157767
 C            6.872212           -0.203838            0.536437
 N            5.993528            0.188353           -0.424323
 C            5.194367           -0.762786           -0.979368
 C            4.250045           -0.396750           -1.995797
 C            3.420253           -1.340437           -2.554538
 C            3.490177           -2.729942           -2.116091
 C            4.399128           -3.113691           -1.157386
 C            5.276363           -2.152175           -0.557900
 N            6.162065           -2.546768            0.397535
 C            6.961274           -1.596079            0.951549
 C            7.906662           -1.963103            1.966298
 C            8.714482           -1.012145            2.543648
 C            9.677720           -1.360662            3.580583
 C            2.574891           -3.695186           -2.709628
 C            1.678725           -3.319664           -3.652118
 C            1.616972           -1.948504           -4.108913
 C            2.448003           -1.002646           -3.596802
 C            2.403052            0.386914           -4.115293
 C            3.074906            0.699074           -5.259076
 C            3.027303            2.033546           -5.803327
 C            2.305537            3.004776           -5.189546
 C            1.571834            2.728298           -3.967499
 C            0.829424            3.714612           -3.336416
 C            0.126424            3.445759           -2.132346
 C           -0.644758            4.443560           -1.479580
 C           -1.313795            4.171420           -0.296139
 C           -2.118471            5.184387            0.362990
 C           -2.763530            4.913149            1.525507
 C           -2.655925            3.612737            2.138696
 C           -1.914411            2.625800            1.560626
 C           -1.795296            1.308684            2.232959
 C           -0.665629            0.988307            2.918003
 C           -0.554661           -0.269025            3.624437
 C           -1.580993           -1.151733            3.632077
 C           -2.818014           -0.871929            2.915751
 C           -3.861152           -1.768962            2.926817
 C           -5.062699           -1.499861            2.193858
 N           -6.085039           -2.398549            2.213189
 C           -7.198156           -2.107261            1.488345
 C           -8.301029           -3.024735            1.475802
 C           -9.430304           -2.748081            0.742125
 C          -10.561478           -3.666704            0.711931
 C          -11.670249           -3.387469           -0.013118
 C          -11.763526           -2.162280           -0.782899
 C          -10.743024           -1.272527           -0.793871
 C           -9.523554           -1.516278           -0.033807
 C           -8.483617           -0.617095           -0.040224
 C           -7.292576           -0.876494            0.716989
 N           -6.274673            0.024860            0.704343
 C           -5.161729           -0.265667            1.431437
 C           -4.063777            0.657420            1.452213
 C           -2.927104            0.380049            2.175084
 C           -1.219169            2.856466            0.298701
 C           -0.483676            1.871218           -0.342010
 C            0.196963            2.134058           -1.561424
 C            0.948585            1.127655           -2.225935
 C            1.626157            1.397093           -3.405161
 H           11.192841           -0.669605            4.919907
 H           11.048792            1.682633            4.212085
 H            9.429585            2.388462            2.448424
 H            7.639773            1.803960            0.830583
 H            4.216555            0.654968           -2.301600
 H            4.478814           -4.150436           -0.822011
 H            7.954916           -3.015315            2.256543
 H            9.731202           -2.406713            3.882452
 H            2.639105           -4.726529           -2.362570
 H            0.984118           -4.031769           -4.097902
 H            0.885398           -1.702101           -4.879299
 H            3.663338           -0.048694           -5.790701
 H            3.585433            2.228873           -6.718062
 H            2.256677            4.016619           -5.590238
 H            0.778380            4.717249           -3.760065
 H           -0.704825            5.435091           -1.927523
 H           -2.187330            6.162683           -0.111226
 H           -3.375160            5.661924            2.027376
 H           -3.183713            3.445824            3.077984
 H            0.183525            1.671964            2.960336
 H            0.378846           -0.471589            4.150018
 H           -1.514715           -2.098790            4.167741
 H           -3.807395           -2.707183            3.484105
 H           -8.205007           -3.939928            2.064817
 H          -10.476448           -4.584152            1.294376
 H          -12.520226           -4.068338           -0.042209
 H          -12.679005           -1.988253           -1.346940
 H          -10.797755           -0.347791           -1.368472
 H           -8.526614            0.311729           -0.614306
 H           -4.168664            1.580962            0.872301
 H           -0.415998            0.868835            0.086182
 H            0.985139            0.128500           -1.786534

