96

 C           -2.774122           -0.952035           -2.704719
 C           -2.804045           -2.133169           -2.032020
 C           -3.491476           -2.256909           -0.757974
 C           -3.506860           -3.591693           -0.115109
 C           -4.583002           -4.413809           -0.281503
 C           -4.619413           -5.715365            0.336804
 C           -3.584041           -6.148312            1.096560
 C           -2.415355           -5.313570            1.308519
 C           -1.357362           -5.751655            2.089395
 C           -0.216827           -4.933246            2.299922
 C            0.872997           -5.374643            3.094968
 C            1.980373           -4.566502            3.299361
 C            3.097527           -5.020492            4.107540
 C            4.181843           -4.230993            4.301254
 C            4.249000           -2.917802            3.710786
 C            3.224820           -2.442875            2.944836
 C            3.317043           -1.089254            2.349303
 C            4.048601           -0.872533            1.216742
 C            4.141635            0.458569            0.697895
 C            4.777418            1.018466           -0.400788
 C            5.619826            0.522333           -1.475469
 C            5.598020            1.135738           -2.741138
 C            6.405756            0.642604           -3.767596
 C            7.236460           -0.461053           -3.542861
 C            7.264588           -1.067279           -2.282609
 C            6.464631           -0.579114           -1.247855
 O            4.522599            2.398440           -0.439136
 C            3.724365            2.702994            0.671176
 C            3.394749            4.108361            0.832000
 C            3.280385            4.646719            2.126383
 C            2.963323            5.995690            2.292123
 C            2.766871            6.816029            1.175327
 C            2.885347            6.282177           -0.112794
 C            3.197777            4.932347           -0.290131
 C            3.456002            1.547257            1.388066
 C            2.680343            1.268280            2.561797
 C            2.614485           -0.009352            3.021819
 C            2.036006           -3.252839            2.699711
 C            0.977946           -2.817218            1.914258
 C           -0.164241           -3.635269            1.697353
 C           -1.256205           -3.198596            0.898657
 C           -2.365952           -4.006704            0.693947
 C           -4.112228           -1.191237           -0.171018
 C           -4.103342            0.070793           -0.846968
 C           -4.619041            1.323378           -0.547459
 C           -5.387756            1.893311            0.545924
 C           -6.315268            1.093121            1.236918
 C           -7.045317            1.633496            2.297162
 C           -6.864374            2.969432            2.670302
 C           -5.950664            3.770207            1.975917
 C           -5.212438            3.238686            0.916639
 O           -4.304437            2.221087           -1.579679
 C           -3.591632            1.503686           -2.549283
 C           -3.217505            2.259711           -3.731597
 C           -2.900648            3.626365           -3.638874
 C           -2.547894            4.336139           -4.789043
 C           -2.507324            3.692645           -6.030945
 C           -2.821320            2.332075           -6.122881
 C           -3.179965            1.614432           -4.980807
 C           -3.434013            0.188763           -2.138912
 H           -2.255447           -0.840065           -3.655810
 H           -2.308824           -3.023321           -2.420915
 H           -5.439156           -4.109778           -0.883059
 H           -5.502424           -6.332311            0.172900
 H           -3.593777           -7.129338            1.569933
 H           -1.390280           -6.736472            2.553660
 H            0.826970           -6.365316            3.545622
 H            3.028524           -6.014598            4.547667
 H            5.027477           -4.562680            4.902956
 H            5.140610           -2.319258            3.896713
 H            4.555787           -1.681132            0.693089
 H            4.947417            1.993490           -2.913671
 H            6.387270            1.117258           -4.747455
 H            7.859923           -0.847314           -4.347720
 H            7.914030           -1.923220           -2.105404
 H            6.501125           -1.043116           -0.262763
 H            3.452701            4.011726            2.994719
 H            2.873206            6.410443            3.294901
 H            2.525871            7.869712            1.309401
 H            2.733269            6.920661           -0.981927
 H            3.290802            4.510423           -1.291126
 H            2.153317            2.087365            3.049389
 H            2.028825           -0.267795            3.904538
 H            1.011804           -1.831501            1.444083
 H           -1.209346           -2.204630            0.447344
 H           -4.606053           -1.270732            0.795863
 H           -6.470188            0.057131            0.937466
 H           -7.759631            1.010907            2.833725
 H           -7.434523            3.385624            3.499462
 H           -5.812916            4.811416            2.263739
 H           -4.498683            3.859263            0.374129
 H           -2.932695            4.121853           -2.668237
 H           -2.303041            5.394953           -4.717133
 H           -2.235249            4.250394           -6.926058
 H           -2.790245            1.830128           -7.088701
 H           -3.443120            0.559818           -5.054717

