94

 C            2.148531            0.724732            7.382054
 C            2.402309           -0.352411            6.601352
 C            2.608347           -0.204006            5.170219
 C            2.867951           -1.260529            4.331343
 C            3.051247           -1.040518            2.925311
 C            3.312807           -2.081864            2.028411
 C            3.473943           -1.811026            0.656726
 N            3.728751           -2.876659           -0.204441
 C            3.872407           -2.637430           -1.506841
 C            4.130092           -3.768385           -2.396060
 C            4.273424           -3.573653           -3.726919
 C            4.185839           -2.248916           -4.304479
 C            3.954778           -1.157138           -3.527718
 C            3.896042            0.196218           -4.133383
 C            5.050637            0.834812           -4.474215
 C            5.020519            2.141512           -5.083768
 C            3.839225            2.760247           -5.334411
 C            2.578786            2.128607           -4.986778
 C            1.367421            2.756610           -5.232395
 C            0.136744            2.140896           -4.881874
 C           -1.109822            2.777681           -5.121658
 C           -2.304619            2.169398           -4.769222
 C           -3.581051            2.821081           -5.003501
 C           -4.744762            2.221968           -4.646184
 C           -4.741497            0.915191           -4.035801
 C           -3.571280            0.257543           -3.801974
 C           -3.595115           -1.097623           -3.197855
 C           -3.527693           -1.219959           -1.744661
 C           -3.390527           -0.149809           -0.892198
 C           -3.344030           -0.352172            0.526460
 C           -3.203965            0.705132            1.433723
 C           -3.170932            0.451063            2.816956
 N           -3.034764            1.533931            3.685393
 C           -2.991977            1.307885            4.995969
 C           -2.844804            2.447429            5.901440
 C           -2.792691            2.256691            7.239428
 C           -2.883756            0.926278            7.812049
 C           -3.025264           -0.164703            7.022110
 C           -3.086757           -0.034988            5.575796
 C           -3.228677           -1.106156            4.727176
 C           -3.275890           -0.903653            3.307604
 C           -3.413841           -1.960392            2.400988
 C           -3.448333           -1.706184            1.017362
 N           -3.578917           -2.787345            0.147526
 C           -3.612528           -2.562737           -1.164850
 C           -3.734677           -3.708885           -2.063593
 C           -3.768185           -3.527502           -3.403588
 C           -3.701277           -2.202184           -3.982936
 C           -2.290290            0.862231           -4.150839
 C           -1.077821            0.233592           -3.910999
 C            0.153615            0.847497           -4.266669
 C            1.401203            0.210917           -4.026562
 C            2.598485            0.820955           -4.369542
 C            3.780029           -1.294363           -2.084603
 C            3.535394           -0.237920           -1.238819
 C            3.369627           -0.456340            0.168217
 C            3.110088            0.586157            1.066486
 C            2.952236            0.315775            2.437699
 N            2.698518            1.384403            3.297499
 C            2.532549            1.142417            4.595278
 C            2.262188            2.266824            5.491160
 C            2.079025            2.058862            6.814936
 H            1.988493            0.625955            8.454903
 H            2.458484           -1.359103            7.014306
 H            2.937659           -2.280967            4.710710
 H            3.391215           -3.113756            2.377659
 H            4.196345           -4.754892           -1.932569
 H            4.461589           -4.405785           -4.406685
 H            4.312127           -2.158472           -5.383798
 H            6.024034            0.376963           -4.296340
 H            5.973237            2.606574           -5.334603
 H            3.799942            3.743855           -5.801611
 H            1.344567            3.740515           -5.700139
 H           -1.112357            3.761874           -5.589313
 H           -3.568054            3.803498           -5.474696
 H           -5.708646            2.702409           -4.810580
 H           -5.702179            0.471996           -3.772325
 H           -3.312875            0.871284           -1.276383
 H           -3.114977            1.735416            1.079992
 H           -2.779396            3.435789            5.441802
 H           -2.682364            3.093986            7.928617
 H           -2.835050            0.841872            8.896895
 H           -3.096701           -1.168834            7.439099
 H           -3.306629           -2.124947            5.109370
 H           -3.493293           -2.991379            2.752596
 H           -3.793137           -4.695475           -1.599232
 H           -3.851845           -4.371122           -4.090024
 H           -3.744579           -2.121648           -5.069553
 H           -1.054034           -0.751343           -3.438529
 H            1.401922           -0.777694           -3.561073
 H            3.457918            0.784311           -1.620335
 H            3.022628            1.616975            0.714091
 H            2.214856            3.258377            5.036102
 H            1.873788            2.884487            7.496410

