94

 C            3.314532            6.617608            1.926719
 C            3.227456            5.785149            3.110629
 C            3.257469            4.434203            3.016534
 C            3.379356            3.772537            1.727754
 C            3.450366            4.614815            0.532484
 C            3.418812            6.067495            0.695454
 N            3.551267            4.119380           -0.699013
 C            3.586009            2.737127           -0.870313
 C            3.681719            2.239861           -2.183007
 C            3.720067            0.860819           -2.414307
 C            3.815311            0.298590           -3.730612
 C            3.840761           -1.064677           -3.900603
 C            3.937206           -1.704473           -5.201928
 C            3.949616           -3.054250           -5.312678
 C            3.865972           -3.901370           -4.137283
 C            3.780380           -3.369882           -2.896422
 C            3.767117           -1.918974           -2.711646
 N            3.687469           -1.431827           -1.475833
 C            3.661464           -0.049495           -1.295215
 C            3.571161            0.448863            0.017706
 C            3.529984            1.828686            0.251789
 C            3.434732            2.399751            1.572602
 C            3.435008            1.504523            2.756551
 C            4.591297            1.322996            3.455496
 C            4.614236            0.510158            4.646168
 C            3.477849           -0.069242            5.108558
 C            2.219615            0.086293            4.400613
 C            1.053192           -0.496599            4.871625
 C           -0.164260           -0.387350            4.148756
 C           -1.369406           -0.970592            4.622321
 C           -2.540742           -0.891294            3.884720
 C           -3.778198           -1.477177            4.368522
 C           -4.916221           -1.410187            3.632682
 C           -4.920283           -0.765386            2.342716
 C           -3.786160           -0.197168            1.844919
 C           -3.805324            0.429631            0.499808
 C           -3.627533           -0.415896           -0.656126
 C           -3.414357           -1.796414           -0.564643
 C           -3.261324           -2.573701           -1.727851
 N           -3.069715           -3.946882           -1.581661
 C           -2.923854           -4.696711           -2.671348
 C           -2.728144           -6.137580           -2.512455
 C           -2.580347           -6.932150           -3.596884
 C           -2.609173           -6.382441           -4.939617
 C           -2.784676           -5.055401           -5.146256
 C           -2.953210           -4.142643           -4.027835
 C           -3.141919           -2.789711           -4.179277
 C           -3.308618           -1.949454           -3.028575
 C           -3.515479           -0.568539           -3.122061
 C           -3.678417            0.206232           -1.958962
 N           -3.891044            1.575500           -2.109338
 C           -4.046784            2.328495           -1.022454
 C           -4.270424            3.762913           -1.196249
 C           -4.432301            4.567603           -0.121024
 C           -4.389875            4.032127            1.225983
 C           -4.188940            2.710524            1.444301
 C           -4.007902            1.786050            0.337273
 C           -2.541373           -0.216585            2.605726
 C           -1.375847            0.379004            2.148238
 C           -0.174131            0.321743            2.904271
 C            1.018509            0.948943            2.452445
 C            2.197246            0.856353            3.176373
 H            3.291503            7.698572            2.066208
 H            3.135051            6.286085            4.073323
 H            3.186442            3.799915            3.902609
 H            3.483652            6.665795           -0.215513
 H            3.723035            2.946998           -3.014805
 H            3.865789            0.976474           -4.583896
 H            3.998517           -1.057213           -6.076460
 H            4.022114           -3.545412           -6.282260
 H            3.873758           -4.980249           -4.293277
 H            3.714308           -3.982337           -1.994585
 H            3.528877           -0.261115            0.850974
 H            5.523689            1.791813            3.138448
 H            5.568047            0.387850            5.158319
 H            3.476512           -0.674132            6.014806
 H            1.058828           -1.058245            5.805580
 H           -1.358959           -1.488830            5.580962
 H           -3.757533           -1.971852            5.339129
 H           -5.851438           -1.844106            3.985250
 H           -5.853860           -0.755462            1.778931
 H           -3.362277           -2.291415            0.411251
 H           -2.708569           -6.522754           -1.490810
 H           -2.435013           -8.007965           -3.496896
 H           -2.484793           -7.076722           -5.769737
 H           -2.806500           -4.630138           -6.149297
 H           -3.169901           -2.329867           -5.168085
 H           -3.554184           -0.074956           -4.095788
 H           -4.297540            4.135740           -2.222056
 H           -4.598575            5.639278           -0.233327
 H           -4.524088            4.730846            2.050677
 H           -4.153963            2.297040            2.454406
 H           -1.363141            0.900655            1.188351
 H            0.990714            1.505787            1.512910

