90

 C            4.625626            5.565573           -0.616618
 C            4.849536            5.257752            0.701349
 C            4.748758            3.903756            1.150755
 C            4.413075            2.879574            0.227276
 C            4.184142            3.224239           -1.151047
 C            4.292712            4.545070           -1.546178
 C            3.840466            2.159167           -2.111089
 C            3.621300            2.435805           -3.448409
 C            3.291416            1.405036           -4.367539
 C            3.180443            0.105384           -3.943012
 C            3.399703           -0.223104           -2.568180
 C            3.733268            0.802091           -1.644954
 C            3.959390            0.457017           -0.266164
 C            3.850093           -0.861553            0.132574
 C            3.523672           -1.886381           -0.800919
 C            3.474795           -3.293906           -0.334306
 C            4.633032           -4.003829           -0.225942
 C            4.619720           -5.381863            0.197901
 C            3.449735           -6.000265            0.497102
 C            2.187156           -5.288159            0.411657
 C            0.989794           -5.910494            0.729415
 C           -0.243382           -5.210617            0.652814
 C           -1.475833           -5.836051            0.978315
 C           -2.673426           -5.141678            0.902085
 C           -3.933378           -5.780005            1.238532
 C           -5.102201           -5.094549            1.166415
 C           -5.118735           -3.717119            0.741295
 C           -3.964488           -3.071952            0.410094
 C           -4.025128           -1.660538           -0.042910
 C           -4.455911           -1.355811           -1.313703
 C           -4.561721            0.006910           -1.728358
 C           -4.222000            1.048111           -0.825703
 C           -4.343835            2.416115           -1.254711
 C           -4.790198            2.687998           -2.535371
 C           -5.128004            1.641452           -3.433411
 C           -5.017453            0.330492           -3.045045
 C           -3.989740            3.497825           -0.317230
 C           -4.086313            4.828689           -0.680480
 C           -3.741479            5.865330            0.226759
 C           -3.303923            5.563445            1.491390
 C           -3.192599            4.199654            1.907598
 C           -3.533927            3.158860            1.004989
 C           -3.416814            1.790636            1.435064
 C           -2.981005            1.518167            2.718698
 C           -2.641660            2.563938            3.617249
 C           -2.741390            3.874809            3.225354
 C           -3.766473            0.707979            0.496706
 C           -3.669642           -0.620939            0.863488
 C           -2.678512           -3.757211            0.483293
 C           -1.478732           -3.138435            0.164764
 C           -0.243926           -3.838681            0.240231
 C            0.990664           -3.212270           -0.082917
 C            2.190332           -3.904228           -0.008579
 C            3.295316           -1.575953           -2.121575
 C            4.311457            1.521530            0.691983
 C            4.548324            1.241340            2.025148
 C            4.886741            2.270034            2.943499
 C            4.984453            3.571801            2.521828
 H            4.699077            6.593008           -0.971504
 H            5.105571            6.031869            1.422918
 H            4.123270            4.830942           -2.585532
 H            3.697579            3.456892           -3.825388
 H            3.129263            1.667612           -5.412637
 H            2.927435           -0.694019           -4.637703
 H            4.014482           -1.148196            1.173498
 H            5.595918           -3.551665           -0.463612
 H            5.574520           -5.902068            0.263439
 H            3.421186           -7.043214            0.809288
 H            0.982307           -6.952991            1.046193
 H           -1.467508           -6.879301            1.292696
 H           -3.904130           -6.823505            1.548744
 H           -6.054064           -5.558780            1.421171
 H           -6.082324           -3.209982            0.691807
 H           -4.723335           -2.144551           -2.016270
 H           -4.891689            3.717371           -2.882568
 H           -5.475578            1.901068           -4.433002
 H           -5.272961           -0.481187           -3.724255
 H           -4.430273            5.110379           -1.676931
 H           -3.831037            6.900049           -0.102195
 H           -3.035363            6.349728            2.195123
 H           -2.887896            0.487903            3.067226
 H           -2.300901            2.302605            4.618505
 H           -2.480100            4.684655            3.904591
 H           -3.324496           -0.904336            1.860308
 H           -1.467341           -2.092672           -0.152516
 H            0.979688           -2.164267           -0.392685
 H            3.040409           -2.353212           -2.841618
 H            4.478655            0.218237            2.398947
 H            5.065486            2.003221            3.984493
 H            5.241060            4.368922            3.217598

