90

 C           -6.143479           -2.401907           -3.512719
 C           -5.814540           -3.124048           -2.392923
 C           -5.078073           -2.511236           -1.331779
 C           -4.729914           -1.138271           -1.416287
 C           -5.017448           -0.426299           -2.630649
 C           -5.726243           -1.051300           -3.640602
 C           -4.514829            0.950227           -2.775391
 C           -4.550791            1.599034           -3.997378
 C           -4.117333            2.942970           -4.127769
 C           -3.678511            3.634142           -3.026165
 C           -3.628834            2.994103           -1.749969
 C           -3.993339            1.629952           -1.619382
 C           -3.863916            0.964460           -0.340337
 C           -3.561371            1.735452            0.772891
 C           -3.572237            1.265491            2.180522
 C           -4.753189            1.119121            2.844233
 C           -4.774620            0.753960            4.239521
 C           -3.619868            0.546398            4.921912
 C           -2.332428            0.664107            4.260635
 C           -1.146485            0.411131            4.933936
 C            0.106092            0.484056            4.267893
 C            1.326879            0.182651            4.929101
 C            2.536137            0.213099            4.250764
 C            3.782902           -0.139754            4.906452
 C            4.953162           -0.148063            4.219218
 C            4.993572            0.213485            2.823190
 C            3.856699            0.573406            2.164402
 C            3.921832            1.039764            0.756643
 C            4.010277            0.234687           -0.370204
 C            3.898084           -1.240116           -0.350953
 C            3.376306           -1.939847            0.719723
 C            3.375198           -3.361714            0.756753
 C            3.886732           -4.086037           -0.286927
 C            4.365767           -3.408914           -1.452188
 C            4.328256           -1.991062           -1.506790
 C            4.686212           -1.340749           -2.736631
 C            5.153330           -2.091469           -3.800663
 C            5.254583           -3.503808           -3.711330
 C            4.856990           -4.153004           -2.569531
 C            4.515076            0.117815           -2.839242
 C            4.642210            0.764386           -4.056792
 C            4.529145            2.173946           -4.155804
 C            4.313601            2.925807           -3.028204
 C            4.175344            2.289544           -1.756843
 C            4.225037            0.875911           -1.651373
 C            4.005565            3.079951           -0.576613
 C            3.914243            2.469059            0.641005
 C            2.567230            0.582542            2.853623
 C            1.383841            0.897461            2.204645
 C            0.136875            0.847041            2.882804
 C           -1.082188            1.124602            2.209389
 C           -2.300849            1.033756            2.863541
 C           -3.236988            3.125198            0.634901
 C           -3.233412            3.731217           -0.589208
 C           -4.063039           -0.499828           -0.307045
 C           -3.616513           -1.294833            0.730540
 C           -3.919615           -2.683314            0.788953
 C           -4.664174           -3.276396           -0.196262
 H           -6.713342           -2.853771           -4.323504
 H           -6.103126           -4.169250           -2.294877
 H           -5.970869           -0.520194           -4.561165
 H           -4.920408            1.087501           -4.887279
 H           -4.150202            3.413959           -5.109575
 H           -3.364637            4.673838           -3.104401
 H           -5.707016            1.276243            2.340379
 H           -5.746915            0.656661            4.721764
 H           -3.623015            0.279184            5.977647
 H           -1.162644            0.140041            5.988951
 H            1.297330           -0.086166            5.984361
 H            3.740948           -0.403381            5.962292
 H            5.892977           -0.421707            4.697994
 H            5.957688            0.192368            2.315093
 H            2.936535           -1.434379            1.578701
 H            2.967915           -3.856384            1.638265
 H            3.921106           -5.173392           -0.257563
 H            5.445220           -1.611268           -4.735623
 H            5.638514           -4.058059           -4.566670
 H            4.904433           -5.238280           -2.496269
 H            4.838396            0.197609           -4.968393
 H            4.625994            2.643461           -5.133950
 H            4.245893            4.011254           -3.081734
 H            3.967151            4.164457           -0.668711
 H            3.823941            3.058008            1.556060
 H            1.392982            1.176991            1.147707
 H           -1.044023            1.399644            1.151969
 H           -2.982831            3.685579            1.536819
 H           -2.951039            4.777255           -0.700048
 H           -3.010140           -0.891879            1.541480
 H           -3.555724           -3.257554            1.640759
 H           -4.934143           -4.329354           -0.144018

