96

 C           -3.535583           -2.223662            7.082682
 C           -3.347258           -3.427938            6.295456
 C           -3.308993           -3.381290            4.944157
 C           -3.460622           -2.107211            4.241766
 N           -3.419342           -2.100514            2.911478
 C           -3.559377           -0.887621            2.237204
 C           -3.505616           -0.890430            0.832671
 C           -3.637685            0.306770            0.113848
 C           -3.586298            0.327346           -1.318540
 C           -3.699728            1.503607           -2.024577
 C           -3.871704            2.757648           -1.307666
 C           -3.940968            2.759274            0.067792
 C           -3.827656            1.546580            0.820760
 C           -3.888833            1.545180            2.224107
 C           -3.755563            0.353789            2.948289
 C           -3.799126            0.305662            4.380284
 C           -3.653327           -0.892568            5.038048
 C           -3.680289           -1.016560            6.485528
 C           -3.963397            3.992546           -2.073334
 C           -3.901340            3.980482           -3.426220
 C           -3.750834            2.736689           -4.148454
 C           -3.657493            1.552388           -3.487045
 C           -3.536826            0.281818           -4.244143
 C           -4.656947           -0.335409           -4.713606
 C           -4.563356           -1.559393           -5.470385
 C           -3.356087           -2.120412           -5.733201
 C           -2.129549           -1.508274           -5.253952
 C           -0.891311           -2.075199           -5.514573
 C            0.304540           -1.479385           -5.032402
 C            1.579415           -2.053409           -5.281473
 C            2.737405           -1.463667           -4.797295
 C            4.042217           -2.054543           -5.035445
 C            5.169434           -1.470358           -4.556085
 C            5.098832           -0.241923           -3.804057
 C            3.899927            0.355932           -3.556027
 C            3.853554            1.632359           -2.800410
 C            3.928943            2.820832           -3.456508
 C            3.919957            4.071279           -2.729822
 C            3.848107            4.086148           -1.377478
 C            3.767490            2.846952           -0.617419
 C            3.702437            2.851367            0.758230
 C            3.598275            1.632747            1.502977
 C            3.526877            1.633079            2.905858
 C            3.404705            0.434293            3.619861
 C            3.319519            0.386406            5.049985
 C            3.191455           -0.819979            5.696609
 C            3.094520           -0.944971            7.141049
 C            2.972528           -2.160100            7.726951
 C            2.933084           -3.372307            6.930534
 C            3.016033           -3.325453            5.581212
 C            3.150480           -2.042858            4.890969
 N            3.231576           -2.036456            3.562495
 C            3.355907           -0.815942            2.899048
 C            3.434634           -0.820027            1.495684
 C            3.557648            0.384185            0.787170
 C            3.644601            0.403141           -0.643539
 C            3.751670            1.585095           -1.340915
 C            2.656316           -0.237763           -4.034707
 C            1.415654            0.327707           -3.783756
 C            0.221742           -0.270452           -4.268489
 C           -1.052710            0.303137           -4.012327
 C           -2.214568           -0.285252           -4.487008
 H           -3.554077           -2.329436            8.166408
 H           -3.236536           -4.368924            6.834373
 H           -3.163924           -4.269329            4.325637
 H           -3.354226           -1.839368            0.312217
 H           -3.450542           -0.624392           -1.838903
 H           -4.079965            3.692250            0.613267
 H           -4.039035            2.484033            2.756592
 H           -3.947759            1.235832            4.929412
 H           -3.819308           -0.104225            7.064270
 H           -4.080167            4.921165           -1.515771
 H           -3.965527            4.897973           -4.010198
 H           -3.717241            2.782013           -5.237112
 H           -5.648430            0.077988           -4.529810
 H           -5.490918           -2.010387           -5.820856
 H           -3.269960           -3.042748           -6.306053
 H           -0.820621           -2.994475           -6.095148
 H            1.634439           -2.974356           -5.861089
 H            4.080713           -2.980503           -5.607678
 H            6.153766           -1.905622           -4.724389
 H            6.031178            0.191518           -3.442697
 H            4.001495            2.864891           -4.543305
 H            3.976615            4.991758           -3.309964
 H            3.844512            5.020019           -0.816480
 H            3.724388            3.790865            1.309747
 H            3.564475            2.578941            3.445765
 H            3.357256            1.323196            5.606663
 H            3.123070           -0.026932            7.726772
 H            2.899368           -2.266711            8.808315
 H            2.833085           -4.319426            7.460647
 H            2.985262           -4.219594            4.955352
 H            3.393409           -1.775858            0.967559
 H            3.621240           -0.554599           -1.169958
 H            1.339315            1.248446           -3.200552
 H           -1.102751            1.223183           -3.425179

