86

 C           -2.410059            3.332038            6.733483
 C           -2.701956            3.358614            5.421701
 C           -2.772349            2.033788            4.796755
 C           -3.050816            1.721820            3.497728
 C           -3.076698            0.338898            3.083773
 C           -3.379317           -0.013397            1.760050
 C           -3.409271           -1.354050            1.347005
 C           -3.101053           -2.384683            2.300875
 C           -2.804637           -2.035474            3.626583
 C           -2.793213           -0.696017            4.039904
 C           -2.502588           -0.338590            5.410437
 C           -2.500986            0.972858            5.750834
 S           -2.190005            1.681401            7.330715
 C           -3.100712           -3.769389            1.887139
 C           -3.399789           -4.060254            0.598474
 S           -3.470869           -5.644881           -0.162242
 C           -3.924833           -4.969356           -1.733014
 C           -4.020348           -3.629532           -1.694972
 C           -3.730656           -3.044166           -0.381740
 C           -3.744669           -1.723064           -0.016074
 C           -4.126856           -0.671836           -0.988756
 C           -5.433135           -0.302051           -1.107381
 C           -5.830064            0.713670           -2.050861
 C           -4.909941            1.317985           -2.844128
 C           -3.504752            0.961248           -2.761024
 C           -2.558279            1.573295           -3.568263
 C           -1.183913            1.227803           -3.477998
 C           -0.203696            1.851528           -4.294533
 C            1.136448            1.512634           -4.189480
 C            2.142249            2.151452           -5.019593
 C            3.451982            1.814260           -4.910640
 C            3.876284            0.811069           -3.965599
 C            2.972663            0.183917           -3.161103
 C            3.434066           -0.841558           -2.195283
 C            3.569108           -2.152027           -2.573594
 C            3.273865           -2.759845           -3.875246
 C            3.517314           -4.080152           -3.933625
 S            4.132398           -4.707764           -2.398209
 C            4.065325           -3.129385           -1.624044
 C            4.414810           -2.810135           -0.354902
 C            4.278855           -1.436899            0.074864
 C            3.775159           -0.448896           -0.840047
 C            3.628807            0.875087           -0.399053
 C            3.980519            1.256494            0.904361
 C            3.827893            2.622594            1.345851
 C            4.195978            2.968694            2.613607
 C            4.131017            4.286060            3.254723
 C            4.578715            4.302510            4.522060
 S            5.120989            2.705005            5.054651
 C            4.734198            1.959613            3.508868
 C            4.887599            0.663119            3.146337
 C            4.504494            0.270059            1.808740
 C            4.636451           -1.057089            1.376840
 C            1.551758            0.506074           -3.238148
 C            0.600775           -0.113436           -2.441477
 C           -0.775510            0.227263           -2.537465
 C           -1.755978           -0.397166           -1.720193
 C           -3.095689           -0.051568           -1.813685
 H           -2.301091            4.156706            7.418961
 H           -2.877616            4.250539            4.833179
 H           -3.255838            2.492742            2.756754
 H           -3.594947            0.775542            1.034890
 H           -2.579440           -2.821014            4.348560
 H           -2.296026           -1.132088            6.126646
 H           -2.859383           -4.536338            2.621318
 H           -4.082831           -5.635862           -2.565008
 H           -4.279789           -2.988361           -2.530824
 H           -6.208717           -0.764282           -0.496314
 H           -6.887036            0.973745           -2.101051
 H           -5.194139            2.084826           -3.563660
 H           -2.860850            2.334079           -4.287027
 H           -0.523017            2.607466           -5.011155
 H            1.805714            2.906521           -5.728904
 H            4.216821            2.286448           -5.526587
 H            4.938729            0.571656           -3.915654
 H            2.889324           -2.149666           -4.685627
 H            3.385146           -4.756783           -4.761895
 H            4.792601           -3.546284            0.352786
 H            3.230921            1.627521           -1.084896
 H            3.418312            3.353556            0.650612
 H            3.746874            5.140138            2.710961
 H            4.638532            5.132265            5.207418
 H            5.288625           -0.092143            3.820174
 H            5.024914           -1.808435            2.065035
 H            0.901590           -0.878892           -1.721156
 H           -1.434169           -1.161792           -1.008121

