86

 C           -2.305611            5.676467           -4.248056
 C           -2.652614            4.468697           -4.726222
 C           -2.929969            3.472066           -3.686440
 C           -3.302563            2.167929           -3.833968
 C           -3.533288            1.350145           -2.665944
 C           -3.925925            0.010771           -2.799074
 C           -4.162328           -0.793178           -1.674814
 C           -4.002799           -0.236957           -0.359085
 C           -4.254798           -1.073370            0.793229
 C           -4.641775           -2.356824            0.597408
 S           -5.016648           -3.570475            1.813349
 C           -5.381319           -4.802270            0.598124
 C           -5.232520           -4.336921           -0.654592
 C           -4.809178           -2.934269           -0.723760
 C           -4.572727           -2.169392           -1.828556
 C           -3.614610            1.111769           -0.220654
 C           -3.510283            1.708957            1.135498
 C           -4.596462            2.331309            1.675351
 C           -4.533517            2.924243            2.987841
 C           -3.388369            2.872367            3.713542
 C           -2.202596            2.218544            3.189171
 C           -1.032303            2.157312            3.929654
 C            0.125758            1.514000            3.418973
 C            1.326551            1.437881            4.173099
 C            2.450296            0.803148            3.667652
 C            3.675789            0.717752            4.442106
 C            4.771880            0.091979            3.944597
 C            4.744551           -0.499161            2.630063
 C            3.620321           -0.443978            1.861179
 C            3.632115           -1.058640            0.508995
 C            3.254769           -2.408496            0.354351
 C            2.807599           -3.201972            1.477460
 C            2.472282           -4.497999            1.269929
 S            1.911371           -5.672220            2.452536
 C            1.766012           -6.953064            1.241999
 C            2.117575           -6.531525            0.014516
 C            2.536029           -5.126621           -0.036920
 C            2.950006           -4.400022           -1.114939
 C            3.323024           -3.014740           -0.947045
 C            3.758746           -2.255235           -2.042282
 C            4.127353           -0.910459           -1.894268
 C            4.060987           -0.295700           -0.596792
 C            4.444468            1.091417           -0.455201
 C            4.863736            1.768681           -1.551080
 S            5.389041            3.443886           -1.650703
 C            5.696194            3.336037           -3.388963
 C            5.422565            2.113046           -3.876021
 C            4.939805            1.163159           -2.868048
 C            4.578700           -0.142435           -3.031283
 C            2.410645            0.210844            2.348813
 C            1.242366            0.282334            1.604787
 C            0.080735            0.925233            2.113807
 C           -1.125000            0.996849            1.363873
 C           -2.253731            1.622375            1.872497
 C           -3.368893            1.914066           -1.354077
 C           -2.963919            3.296679           -1.228705
 C           -2.763262            4.023663           -2.354144
 S           -2.282951            5.710607           -2.480006
 H           -2.053705            6.572846           -4.791532
 H           -2.733776            4.204813           -5.773396
 H           -3.434638            1.721451           -4.817448
 H           -4.053962           -0.412590           -3.795898
 H           -4.125033           -0.648537            1.790572
 H           -5.679752           -5.785704            0.923808
 H           -5.396630           -4.904851           -1.561879
 H           -4.687575           -2.570097           -2.833659
 H           -5.538029            2.396629            1.129559
 H           -5.431017            3.409914            3.369585
 H           -3.323636            3.316182            4.706252
 H           -0.988737            2.605538            4.921892
 H            1.352197            1.888117            5.165041
 H            3.680508            1.171647            5.432350
 H            5.696802            0.018328            4.515787
 H            5.649702           -0.989669            2.271131
 H            2.750551           -2.734745            2.462564
 H            1.424385           -7.927835            1.550796
 H            2.109018           -7.133746           -0.885427
 H            3.009303           -4.839174           -2.108736
 H            3.815217           -2.720104           -3.027142
 H            4.384050            1.556479            0.530666
 H            6.059735            4.206723           -3.910575
 H            5.530616            1.807418           -4.909303
 H            4.622603           -0.627788           -4.004141
 H            1.198034           -0.160827            0.606839
 H           -1.148490            0.544000            0.369576
 H           -2.829255            3.717393           -0.230337

