80

 C           -5.251225            3.975206           -1.766898
 C           -4.569061            4.349255           -0.660527
 C           -4.063062            3.358598            0.285566
 C           -3.361943            3.714576            1.403900
 C           -2.872761            2.727824            2.341687
 C           -2.162629            3.107048            3.466644
 C           -1.695201            2.128199            4.382612
 C           -0.966221            2.319027            5.554611
 S           -0.655274            0.826187            6.288641
 C           -1.450069           -0.106594            5.123640
 C           -1.977818            0.718733            4.132767
 C           -2.720717            0.347854            2.971208
 C           -3.034130           -1.087576            2.770829
 C           -4.200425           -1.600647            3.254459
 C           -4.522705           -2.995143            3.079837
 C           -3.672000           -3.825954            2.426267
 C           -2.416194           -3.332998            1.889380
 C           -1.541354           -4.174173            1.219521
 C           -0.315350           -3.688173            0.693174
 C            0.585495           -4.537494           -0.001727
 C            1.775649           -4.049041           -0.518462
 C            2.698060           -4.914654           -1.231106
 C            3.860182           -4.427871           -1.734939
 C            4.205068           -3.036868           -1.576958
 C            3.374608           -2.181933           -0.915600
 C            3.755169           -0.757263           -0.759906
 C            3.524698            0.175339           -1.765001
 C            2.847938           -0.177915           -2.993045
 C            2.638123            0.733521           -3.990367
 C            1.953173            0.379313           -5.230353
 C            1.763742            1.291396           -6.210637
 C            2.237806            2.656082           -6.057480
 C            2.873324            3.045857           -4.928994
 C            3.104377            2.111044           -3.831189
 C            3.733872            2.487320           -2.677439
 C            3.967077            1.552976           -1.598088
 C            4.601706            1.953916           -0.436149
 C            4.830233            1.024653            0.612508
 C            5.441244            1.245325            1.845188
 S            5.467562           -0.190812            2.739870
 C            4.697556           -1.136532            1.568822
 C            4.399184           -0.359862            0.451040
 C            2.114640           -2.653517           -0.349992
 C            1.242852           -1.817877            0.331672
 C            0.018984           -2.305685            0.863951
 C           -0.884409           -1.454730            1.556355
 C           -2.081780           -1.936910            2.062641
 C           -3.152034            1.322728            2.078970
 C           -3.882070            0.986805            0.876873
 C           -4.324388            1.946000            0.008740
 C           -5.060191            1.609080           -1.206660
 C           -5.499917            2.571866           -2.048361
 H           -5.632636            4.705739           -2.478543
 H           -4.373931            5.396996           -0.436474
 H           -3.151566            4.761323            1.621955
 H           -1.950840            4.154888            3.670099
 H           -0.635928            3.259689            5.956680
 H           -1.520762           -1.181503            5.160513
 H           -4.916313           -0.971655            3.783525
 H           -5.467094           -3.352445            3.488741
 H           -3.902276           -4.880786            2.283899
 H           -1.787777           -5.226588            1.085673
 H            0.324409           -5.587509           -0.126377
 H            2.421994           -5.961964           -1.344686
 H            4.561862           -5.066968           -2.269645
 H            5.147571           -2.691170           -2.001489
 H            2.499777           -1.208043           -3.098049
 H            1.602212           -0.647574           -5.329701
 H            1.254080            1.037859           -7.138506
 H            2.060571            3.345114           -6.881755
 H            3.234193            4.065197           -4.799412
 H            4.081246            3.510828           -2.538595
 H            4.935986            2.981163           -0.304716
 H            5.843510            2.176055            2.202333
 H            4.475697           -2.184029            1.693271
 H            1.488448           -0.761001            0.467314
 H           -0.618898           -0.401596            1.683051
 H           -4.066828           -0.071558            0.678901
 H           -5.237268            0.552241           -1.404909
 H           -6.048731            2.331393           -2.957185

