80

 C            3.974901           -1.147328            1.395936
 C            3.893638           -1.925504            0.294289
 C            3.917705           -1.331676           -1.037138
 C            3.893754           -2.249594           -2.201158
 C            5.058157           -2.561902           -2.836926
 C            5.068056           -3.459217           -3.965719
 C            3.914158           -4.008646           -4.421162
 C            2.643924           -3.705147           -3.786680
 C            1.459946           -4.254247           -4.253713
 C            0.218617           -3.958398           -3.631109
 C           -0.999450           -4.517083           -4.099671
 C           -2.205800           -4.224096           -3.482493
 C           -3.451804           -4.795623           -3.960615
 C           -4.630561           -4.495748           -3.359310
 C           -4.670629           -3.603713           -2.227059
 C           -3.528552           -3.046387           -1.733790
 C           -3.602345           -2.142988           -0.560645
 C           -4.033510           -0.862391           -0.675842
 C           -4.161093           -0.001205            0.493788
 C           -4.604601            1.288712            0.394601
 C           -4.769458            2.125925            1.561700
 C           -5.228476            3.426688            1.452726
 C           -5.398987            4.225168            2.614885
 C           -5.847780            5.541598            2.703838
 S           -5.874001            6.032096            4.322407
 C           -5.311108            4.568676            4.956942
 C           -5.086284            3.659658            3.924754
 C           -4.612487            2.323420            4.012622
 C           -4.449981            1.564652            2.867025
 C           -3.963680            0.203960            2.929112
 C           -3.817993           -0.557637            1.803023
 C           -3.329805           -1.932965            1.855812
 C           -3.226663           -2.686712            0.739089
 C           -2.234414           -3.331983           -2.344522
 C           -1.049228           -2.778477           -1.883179
 C            0.194645           -3.074389           -2.504084
 C            1.415272           -2.514243           -2.037973
 C            2.623799           -2.810787           -2.650190
 C            3.990079            0.013443           -1.193210
 C            4.075593            0.902878           -0.040928
 C            4.159305            2.260636           -0.182358
 C            4.286661            3.135939            0.961306
 C            4.379861            4.507976            0.808245
 C            4.522467            5.346930            1.945424
 C            4.632307            6.735588            1.989836
 S            4.786931            7.249256            3.593943
 C            4.718180            5.704270            4.278892
 C            4.571297            4.747360            3.276375
 C            4.468861            3.336966            3.410250
 C            4.325902            2.538882            2.289043
 C            4.212532            1.101286            2.399151
 C            4.089672            0.304938            1.294619
 H            3.959035           -1.576447            2.397699
 H            3.811996           -3.010301            0.357990
 H            6.010168           -2.144969           -2.508353
 H            6.027231           -3.676995           -4.433751
 H            3.904262           -4.689709           -5.271043
 H            1.468219           -4.923851           -5.113076
 H           -0.972725           -5.184030           -4.960726
 H           -3.403554           -5.469395           -4.814998
 H           -5.572694           -4.915727           -3.709237
 H           -5.641139           -3.393340           -1.777726
 H           -4.306412           -0.439147           -1.642686
 H           -4.852662            1.721449           -0.574593
 H           -5.466421            3.857750            0.482084
 H           -6.139879            6.175749            1.886119
 H           -5.158370            4.396686            6.007210
 H           -4.382458            1.914592            4.994724
 H           -3.716097           -0.196625            3.912115
 H           -3.053968           -2.325738            2.834388
 H           -2.868580           -3.715589            0.767594
 H           -1.057315           -2.097482           -1.028730
 H            1.385454           -1.836270           -1.181621
 H            3.996332            0.471572           -2.182400
 H            4.137679            2.722074           -1.169672
 H            4.347152            4.965473           -0.178799
 H            4.622763            7.406425            1.149548
 H            4.780241            5.520395            5.336403
 H            4.505237            2.903202            4.407785
 H            4.229177            0.671333            3.400595

