78

 C            2.539359           -3.937128           -3.858476
 C            2.613144           -2.543301           -3.819635
 C            3.054101           -1.890376           -2.657071
 C            3.422776           -2.660970           -1.520379
 C            3.339624           -4.080139           -1.569167
 C            2.897175           -4.703502           -2.746959
 C            3.719475           -4.841783           -0.390997
 C            4.150409           -4.225143            0.735248
 C            4.251796           -2.777290            0.814320
 C            4.700702           -2.129762            1.976396
 C            4.780950           -0.736624            2.018616
 C            4.421545            0.032975            0.910288
 C            3.974252           -0.582308           -0.269630
 C            3.884061           -2.001647           -0.320477
 C            3.597938            0.178464           -1.458125
 C            3.731706            1.656857           -1.437642
 C            4.906556            2.235008           -1.815090
 C            5.053225            3.669504           -1.828674
 C            4.020860            4.473388           -1.469206
 C            2.749042            3.911188           -1.051353
 C            1.691269            4.725742           -0.677167
 C            0.452693            4.172305           -0.257662
 C           -0.638884            4.995269            0.126970
 C           -1.842213            4.442384            0.537321
 C           -2.963926            5.280909            0.920831
 C           -4.140043            4.732318            1.316751
 C           -4.299590            3.300397            1.376470
 C           -3.276056            2.468727            1.033409
 C           -3.458991            0.998577            1.128351
 C           -3.133630            0.348329            2.276748
 C           -3.343266           -1.079085            2.425941
 C           -3.898460           -1.804944            1.336669
 C           -4.123069           -3.204238            1.458834
 C           -3.795316           -3.851639            2.660910
 C           -3.251452           -3.128803            3.725202
 C           -3.023648           -1.755674            3.614390
 C           -4.688686           -3.921022            0.328091
 C           -5.003127           -3.281060           -0.823344
 C           -4.789611           -1.851568           -0.977496
 C           -5.114294           -1.179518           -2.166576
 C           -4.891515            0.193934           -2.281234
 C           -4.348612            0.920293           -1.219358
 C           -4.018022            0.280716           -0.014043
 C           -4.235535           -1.120142            0.110087
 C           -1.995200            3.005085            0.585584
 C           -0.935504            2.193880            0.208781
 C            0.300585            2.748362           -0.221152
 C            1.389391            1.924429           -0.615357
 C            2.594907            2.473506           -1.025904
 C            3.155985           -0.445474           -2.581800
 H            2.199110           -4.432936           -4.767568
 H            2.329005           -1.960313           -4.694171
 H            2.832370           -5.789083           -2.794383
 H            3.643273           -5.927509           -0.447609
 H            4.434573           -4.796470            1.618960
 H            4.986651           -2.716594            2.847827
 H            5.127781           -0.243021            2.926362
 H            4.487459            1.120977            0.962772
 H            5.760915            1.630040           -2.118465
 H            6.013796            4.079111           -2.138851
 H            4.113641            5.558520           -1.481075
 H            1.799579            5.809704           -0.699974
 H           -0.515870            6.077386            0.093794
 H           -2.825481            6.360330            0.876827
 H           -4.990542            5.350444            1.601868
 H           -5.260486            2.905735            1.706541
 H           -2.708795            0.887918            3.124624
 H           -3.965247           -4.921858            2.764187
 H           -3.002298           -3.642653            4.653642
 H           -2.597615           -1.206808            4.452716
 H           -4.848836           -4.993131            0.441199
 H           -5.426327           -3.818865           -1.671660
 H           -5.540554           -1.731750           -3.002494
 H           -5.143552            0.705965           -3.209759
 H           -4.178429            1.992645           -1.328348
 H           -1.037832            1.105922            0.237250
 H            1.259571            0.839352           -0.588542
 H            2.869067            0.127732           -3.464709

