78

 C            4.696856            4.837394           -1.040535
 C            4.493585            4.980093            0.333516
 C            4.223400            3.855709            1.130061
 C            4.161860            2.570134            0.524853
 C            4.373115            2.435633           -0.875320
 C            4.638076            3.579647           -1.644966
 C            4.306765            1.108811           -1.463761
 C            4.062495            0.013338           -0.705928
 C            3.846440            0.114828            0.728018
 C            3.600885           -1.011759            1.538541
 C            3.638675           -2.383136            0.975007
 C            4.826466           -3.049168            0.915291
 C            4.896798           -4.391950            0.395291
 C            3.778245           -5.021304           -0.044645
 C            2.486526           -4.359487           -0.003972
 C            1.338665           -4.999006           -0.444878
 C            0.078137           -4.346336           -0.413031
 C           -1.101576           -4.992066           -0.867647
 C           -2.327531           -4.345806           -0.837903
 C           -3.533812           -5.000506           -1.311190
 C           -4.731823           -4.364562           -1.272335
 C           -4.833042           -3.021587           -0.757919
 C           -3.730729           -2.361934           -0.301850
 C           -3.876195           -0.989602            0.241670
 C           -3.850115            0.135015           -0.607527
 C           -3.597689            0.030151           -2.035255
 C           -3.587274            1.123510           -2.834287
 C           -3.836586            2.451824           -2.300677
 C           -3.841199            3.593948           -3.117254
 C           -4.088047            4.853281           -2.565890
 C           -4.333321            4.999396           -1.199091
 C           -4.332604            3.876889           -0.355446
 C           -4.082613            2.589780           -0.906499
 C           -4.079926            1.424626           -0.051284
 C           -4.313747            1.571831            1.343784
 C           -4.567731            2.899613            1.876061
 C           -4.580819            3.989540            1.071948
 C           -4.299959            0.434270            2.167018
 C           -4.085839           -0.829231            1.619094
 C           -2.416714           -2.995316           -0.328168
 C           -1.268150           -2.355504            0.113794
 C           -0.004208           -3.005151            0.084355
 C            1.179919           -2.362463            0.538143
 C            2.406484           -3.008966            0.507481
 C            3.359026           -0.854583            2.911078
 C            3.386233            0.407561            3.501742
 C            3.662449            1.546807            2.728618
 C            3.886338            1.403004            1.331585
 C            3.733443            2.873164            3.317390
 C            4.002996            3.964868            2.562289
 H            4.902828            5.718184           -1.648561
 H            4.542942            5.967478            0.788861
 H            4.798504            3.487029           -2.717658
 H            4.459345            1.028609           -2.539956
 H            4.014065           -0.982699           -1.151484
 H            5.750838           -2.585332            1.259808
 H            5.871621           -4.877563            0.372732
 H            3.813338           -6.035479           -0.439858
 H            1.390510           -6.018885           -0.824906
 H           -1.028231           -6.012003           -1.243992
 H           -3.439602           -6.014809           -1.696264
 H           -5.644931           -4.844795           -1.621776
 H           -5.816878           -2.552452           -0.743939
 H           -3.410163           -0.966962           -2.439737
 H           -3.389541            1.040590           -3.902868
 H           -3.651807            3.498701           -4.184973
 H           -4.088516            5.732554           -3.209917
 H           -4.524171            5.987948           -0.785545
 H           -4.750954            2.984114            2.947027
 H           -4.777415            4.984816            1.469949
 H           -4.463254            0.537396            3.239104
 H           -4.086664           -1.707993            2.265531
 H           -1.322568           -1.332032            0.493429
 H            1.108986           -1.339062            0.915246
 H            3.153411           -1.734842            3.521764
 H            3.197852            0.508204            4.569913
 H            3.564880            2.955021            4.390968
 H            4.062649            4.959021            3.004732

