110

 C           12.743521           -0.056035           -5.172087
 C           12.821046           -1.321814           -4.465973
 C           11.917682           -1.636756           -3.508942
 C           10.840116           -0.718427           -3.157233
 C            9.914135           -1.021317           -2.192634
 C            8.851676           -0.107224           -1.859039
 C            7.903026           -0.411940           -0.888914
 C            6.860039            0.494025           -0.570158
 C            5.884184            0.188847            0.411755
 C            4.864333            1.084262            0.717560
 C            3.868452            0.787057            1.715401
 C            2.860276            1.669149            2.008796
 C            2.779890            2.938975            1.291670
 C            3.720963            3.253516            0.344847
 C            4.793332            2.349284            0.020418
 C            5.747098            2.658804           -0.943895
 C            6.789672            1.753268           -1.262496
 C            7.761984            2.054959           -2.249604
 C            8.777490            1.156795           -2.559242
 C            9.765880            1.447355           -3.566429
 C           10.762575            0.555250           -3.867163
 C           11.766054            0.835682           -4.888340
 C            1.679701            3.844917            1.601081
 C            0.748464            3.522926            2.528132
 C            0.831632            2.275450            3.258889
 C            1.839309            1.395556            3.024500
 C            1.936152            0.147206            3.820849
 C            2.582791            0.158732            5.020283
 C            2.667676           -1.035490            5.824091
 C            2.096497           -2.193224            5.405976
 C            1.396920           -2.262684            4.135390
 C            0.809229           -3.440338            3.699865
 C            0.138236           -3.507015            2.450032
 C           -0.476471           -4.704670            1.998030
 C           -1.121646           -4.760233            0.772154
 C           -1.764939           -5.978196            0.312459
 C           -2.393829           -6.022866           -0.889160
 C           -2.427184           -4.863108           -1.745456
 C           -1.836698           -3.696314           -1.362048
 C           -1.858896           -2.525463           -2.273353
 C           -0.917406           -2.403517           -3.244757
 C           -0.947165           -1.293843           -4.174591
 C           -1.919471           -0.356001           -4.101215
 C           -2.953072           -0.420623           -3.074434
 C           -3.935313            0.532559           -2.987463
 C           -4.944300            0.482073           -1.961716
 C           -5.938427            1.450151           -1.862606
 C           -6.918892            1.393871           -0.840862
 C           -7.930915            2.380300           -0.724803
 C           -8.885048            2.318901            0.285007
 C           -9.912003            3.320269            0.420337
 C          -10.847317            3.253483            1.420559
 C          -11.888383            4.264289            1.571816
 C          -12.803448            4.182783            2.565320
 C          -12.775296            3.082537            3.511608
 C          -11.833626            2.115017            3.420363
 C          -10.818592            2.147029            2.373056
 C           -9.854476            1.178027            2.267264
 C           -8.853640            1.225417            1.232028
 C           -7.865428            0.252665            1.126108
 C           -6.883294            0.310492            0.105206
 C           -5.866462           -0.671209           -0.004688
 C           -4.907317           -0.606418           -1.010287
 C           -3.869546           -1.598370           -1.133181
 C           -2.921965           -1.527519           -2.121980
 C           -1.164099           -3.586957           -0.071783
 C           -0.572941           -2.410849            0.364771
 C            0.079754           -2.337369            1.625029
 C            0.675498           -1.133055            2.088240
 C            1.321013           -1.074992            3.314218
 H           13.496823            0.143150           -5.932837
 H           13.627908           -2.001058           -4.736660
 H           11.962171           -2.582842           -2.970593
 H            9.958201           -1.966606           -1.652049
 H            7.952879           -1.362817           -0.358660
 H            5.941590           -0.769433            0.928649
 H            3.940303           -0.172076            2.233961
 H            3.676143            4.200728           -0.191907
 H            5.699037            3.611315           -1.470585
 H            7.702024            3.010421           -2.770080
 H            9.695892            2.402520           -4.086147
 H           11.693944            1.789248           -5.410180
 H            1.637510            4.785409            1.053026
 H           -0.084377            4.185959            2.759976
 H            0.062552            2.072256            4.004504
 H            3.048683            1.067214            5.402679
 H            3.200398           -0.971475            6.772217
 H            2.146534           -3.101106            6.005539
 H            0.857615           -4.337589            4.315718
 H           -0.435175           -5.586703            2.635982
 H           -1.725069           -6.848553            0.966026
 H           -2.885361           -6.928391           -1.242910
 H           -2.935448           -4.950444           -2.705891
 H           -0.118292           -3.136876           -3.355653
 H           -0.164334           -1.251413           -4.931105
 H           -1.961612            0.477590           -4.801242
 H           -3.973255            1.359321           -3.696273
 H           -5.971238            2.271277           -2.577948
 H           -7.951252            3.197920           -1.444891
 H           -9.921951            4.138008           -0.299799
 H          -11.896253            5.083582            0.853812
 H          -13.584136            4.932090            2.687569
 H          -13.536237            3.068559            4.290382
 H          -11.799593            1.282661            4.122399
 H           -9.820236            0.343878            2.967787
 H           -7.836201           -0.573255            1.836594
 H           -5.843248           -1.486175            0.719211
 H           -3.859099           -2.414544           -0.406729
 H           -0.602643           -1.516495           -0.262785
 H            0.616510           -0.242900            1.456823

