86

 C            2.456259            0.867555            6.641089
 C            2.380278            2.147500            5.973967
 C            2.565123            2.240195            4.632410
 C            2.842176            1.059049            3.834013
 C            3.041581            1.133297            2.464116
 C            3.302327           -0.034502            1.697839
 C            3.514920            0.029915            0.294680
 C            3.756075           -1.114561           -0.449446
 C            3.780849           -2.400200            0.211395
 C            3.588129           -2.474523            1.582581
 C            3.350407           -1.306720            2.355234
 C            3.155261           -1.369443            3.761253
 C            2.907587           -0.222472            4.499515
 C            2.707317           -0.265788            5.937647
 C            4.005411           -3.592622           -0.586086
 C            4.195734           -3.508075           -1.927141
 C            4.193179           -2.227926           -2.591520
 C            3.989557           -1.078344           -1.889627
 C            4.025418            0.233478           -2.582802
 C            5.215444            0.869716           -2.771672
 C            5.273745            2.141027           -3.449835
 C            4.143326            2.729013           -3.916592
 C            2.847750            2.096687           -3.742558
 C            1.686380            2.690754           -4.212795
 C            0.421157            2.069778           -4.037609
 C           -0.777489            2.668230           -4.509131
 C           -2.005790            2.050155           -4.330432
 C           -3.234895            2.662002           -4.803418
 C           -4.432065            2.049074           -4.623551
 C           -4.511486            0.769446           -3.963356
 C           -3.388624            0.152183           -3.499817
 C           -3.493245           -1.170448           -2.834726
 C           -3.536791           -2.308545           -3.582040
 C           -3.673994           -3.599745           -2.954223
 C           -3.773998           -3.706451           -1.605020
 C           -3.730449           -2.527141           -0.758936
 C           -3.834098           -2.624169            0.620438
 C           -3.770147           -1.469343            1.444841
 C           -3.878115           -1.555263            2.858976
 C           -3.794219           -0.420904            3.651567
 C           -3.903130           -0.487883            5.098552
 C           -3.806334            0.633219            5.857654
 C           -3.590970            1.923390            5.242691
 C           -3.488708            2.038231            3.894028
 C           -3.590643            0.870983            3.035903
 C           -3.496523            0.968057            1.656229
 C           -3.587184           -0.186604            0.833219
 C           -3.498335           -0.098703           -0.581865
 C           -3.571165           -1.230699           -1.378668
 C           -2.076933            0.771542           -3.658993
 C           -0.912095            0.180276           -3.194301
 C            0.351974            0.806014           -3.366614
 C            1.549011            0.207541           -2.889186
 C            2.779518            0.822724           -3.062112
 H            2.304421            0.847383            7.719132
 H            2.170215            3.025824            6.581901
 H            2.508735            3.196659            4.114259
 H            2.997096            2.095527            1.953976
 H            3.482206            1.005945           -0.194513
 H            3.613682           -3.439433            2.087998
 H            3.202263           -2.340038            4.253697
 H            2.764183           -1.237649            6.425997
 H            4.012703           -4.551528           -0.069577
 H            4.358971           -4.395499           -2.537197
 H            4.361284           -2.209501           -3.667979
 H            6.149782            0.436300           -2.415535
 H            6.251229            2.606625           -3.570805
 H            4.172480            3.687730           -4.432399
 H            1.732031            3.649749           -4.727529
 H           -0.717536            3.629374           -5.018387
 H           -3.159290            3.626379           -5.303729
 H           -5.361897            2.499638           -4.968908
 H           -5.494699            0.314157           -3.846776
 H           -3.471881           -2.272489           -4.669168
 H           -3.698260           -4.477063           -3.599215
 H           -3.886689           -4.673830           -1.117391
 H           -3.963316           -3.597312            1.093090
 H           -4.027439           -2.533568            3.314306
 H           -4.062270           -1.467155            5.547858
 H           -3.885792            0.595270            6.942950
 H           -3.513423            2.791092            5.895575
 H           -3.324156            3.002675            3.415177
 H           -3.346821            1.938467            1.182853
 H           -3.367062            0.885548           -1.036964
 H           -0.952879           -0.784028           -2.681560
 H            1.483960           -0.754709           -2.375102

