86

 C           -3.644369           -5.709032            5.517052
 C           -3.097285           -6.594328            4.514252
 C           -2.939040           -6.174599            3.233139
 C           -3.311067           -4.827392            2.837645
 C           -3.152965           -4.378551            1.535414
 C           -3.521950           -3.057326            1.165303
 C           -3.379576           -2.590984           -0.169466
 C           -3.751366           -1.302151           -0.520457
 C           -3.648107           -0.822220           -1.885807
 C           -4.030203            0.442633           -2.212286
 C           -3.987927            0.928837           -3.612734
 C           -5.088476            0.795709           -4.405190
 C           -5.077337            1.259421           -5.770680
 C           -3.967661            1.838870           -6.294348
 C           -2.767429            2.008413           -5.494500
 C           -1.630091            2.601039           -6.021452
 C           -0.458787            2.769314           -5.236046
 C            0.711026            3.378451           -5.762703
 C            1.847025            3.540977           -4.984406
 C            3.043906            4.165105           -5.520015
 C            4.152559            4.318046           -4.752545
 C            4.166974            3.861934           -3.384590
 C            3.069246            3.272349           -2.832671
 C            3.110971            2.821962           -1.420454
 C            3.662800            1.627733           -1.071182
 C            3.749367            1.226013            0.320281
 C            4.315029            0.017571            0.697232
 C            4.428614           -0.343022            2.067004
 C            5.014021           -1.574622            2.465825
 C            5.136117           -1.907893            3.806013
 C            5.731124           -3.163029            4.230650
 C            5.840486           -3.472811            5.547645
 C            5.368639           -2.556792            6.561114
 C            4.807302           -1.370318            6.214415
 C            4.662164           -0.992495            4.819262
 C            4.082885            0.209327            4.441703
 C            3.948067            0.559763            3.071296
 C            3.349914            1.785384            2.671412
 C            3.243508            2.125880            1.332057
 C            2.637966            3.375328            0.904612
 C            2.571940            3.709787           -0.408051
 C            1.850572            3.083680           -3.612478
 C            0.713082            2.486005           -3.090634
 C           -0.458319            2.315526           -3.877316
 C           -1.629733            1.707401           -3.349746
 C           -2.769362            1.547757           -4.123662
 C           -4.524685            1.350038           -1.194564
 C           -4.639560            0.940908            0.093363
 C           -4.273161           -0.408164            0.488412
 C           -4.417082           -0.851991            1.793520
 C           -4.057558           -2.176772            2.161435
 C           -4.218458           -2.649119            3.491774
 C           -3.858925           -3.942044            3.840272
 C           -4.011397           -4.442178            5.195544
 H           -3.749439           -6.093419            6.530444
 H           -2.819478           -7.601214            4.822222
 H           -2.529298           -6.830440            2.466126
 H           -2.739817           -5.039679            0.774211
 H           -2.974574           -3.268664           -0.920809
 H           -3.265544           -1.509371           -2.640690
 H           -6.002250            0.335298           -4.029553
 H           -5.984456            1.126856           -6.359250
 H           -3.942951            2.192594           -7.324166
 H           -1.622929            2.948616           -7.053945
 H            0.703250            3.720441           -6.797068
 H            3.017721            4.503428           -6.554965
 H            5.056676            4.785117           -5.141597
 H            5.080730            4.005273           -2.807813
 H            4.060778            0.947390           -1.824140
 H            4.686260           -0.673768           -0.059014
 H            5.368429           -2.259636            1.696223
 H            6.082483           -3.842363            3.455204
 H            6.282210           -4.412010            5.877155
 H            5.478763           -2.852717            7.603268
 H            4.448804           -0.670094            6.967799
 H            3.721894            0.905627            5.198101
 H            2.974404            2.459897            3.440543
 H            2.240302            4.034062            1.676482
 H            2.120850            4.644553           -0.740733
 H            0.703675            2.134067           -2.056340
 H           -1.618349            1.363555           -2.312759
 H           -4.797228            2.359126           -1.503046
 H           -5.011527            1.610799            0.868376
 H           -4.812995           -0.185409            2.559255
 H           -4.632948           -1.974555            4.240342
 H           -4.426972           -3.764987            5.940573

