98

 C           -3.210986            6.367226            0.740639
 C           -2.933643            6.142478           -0.663863
 C           -2.979013            4.893517           -1.186661
 C           -3.306608            3.743346           -0.355554
 C           -3.358156            2.466800           -0.868604
 C           -3.680036            1.340364           -0.043293
 C           -3.946653            1.565239            1.352809
 C           -3.891238            2.901812            1.866919
 C           -3.583376            3.968666            1.053335
 C           -3.521640            5.333118            1.559003
 C           -4.261341            0.479402            2.183212
 C           -4.316260           -0.828428            1.678944
 C           -4.638568           -1.938450            2.526107
 C           -4.698564           -3.221831            2.031891
 C           -5.025956           -4.361332            2.877762
 C           -5.077394           -5.616042            2.369111
 C           -4.809013           -5.857684            0.965719
 C           -4.499169           -4.833869            0.134377
 C           -4.427699           -3.464396            0.624839
 C           -4.113935           -2.411016           -0.204369
 C           -4.052671           -1.065222            0.284392
 C           -3.750040            0.027558           -0.556986
 C           -3.551388           -0.205387           -2.010088
 C           -4.638284           -0.266398           -2.831155
 C           -4.486596           -0.505665           -4.244446
 C           -3.255004           -0.678433           -4.786736
 C           -2.062419           -0.617253           -3.960876
 C           -0.801958           -0.785750           -4.512040
 C            0.365811           -0.707616           -3.708382
 C            1.661915           -0.869098           -4.264602
 C            2.796728           -0.771673           -3.474569
 C            4.122890           -0.930969           -4.043565
 C            5.230891           -0.824151           -3.267625
 C            5.115092           -0.548668           -1.857395
 C            3.893121           -0.393422           -1.273108
 C            3.806593           -0.098977            0.179664
 C            3.810734           -1.161775            1.108222
 C            3.849540           -2.533936            0.696988
 C            3.865218           -3.559909            1.614859
 C            3.908085           -4.956847            1.205527
 C            3.921158           -5.953164            2.123358
 C            3.892831           -5.653337            3.540902
 C            3.854179           -4.371118            3.977016
 C            3.837904           -3.259107            3.036542
 C            3.795432           -1.948522            3.455661
 C            3.778780           -0.866317            2.516201
 C            3.735654            0.468817            2.944529
 C            3.719648            1.526985            2.023469
 C            3.672859            2.891618            2.458693
 C            3.659981            3.930499            1.555435
 C            3.608947            5.322902            1.979557
 C            3.596553            6.328839            1.071888
 C            3.636394            6.045500           -0.348660
 C            3.683251            4.768310           -0.797811
 C            3.695676            3.646377            0.130644
 C            3.739303            2.341768           -0.306872
 C            3.754216            1.243439            0.613352
 C            2.668412           -0.503325           -2.059608
 C            1.404895           -0.357417           -1.505918
 C            0.232941           -0.453260           -2.304767
 C           -1.066799           -0.296573           -1.749923
 C           -2.202473           -0.370679           -2.542725
 H           -3.159094            7.390995            1.108364
 H           -2.688883            7.008869           -1.275900
 H           -2.771790            4.707523           -2.240341
 H           -3.148090            2.288958           -1.925792
 H           -4.099787            3.053889            2.925361
 H           -3.733259            5.486278            2.616241
 H           -4.468995            0.655173            3.238296
 H           -4.836289           -1.740189            3.579000
 H           -5.225805           -4.163902            3.929972
 H           -5.319158           -6.475722            2.992422
 H           -4.865341           -6.885042            0.609926
 H           -4.294172           -4.998868           -0.923175
 H           -3.900658           -2.586994           -1.261189
 H           -5.647869           -0.138429           -2.439950
 H           -5.389293           -0.544130           -4.853079
 H           -3.122408           -0.864359           -5.851347
 H           -0.692244           -0.978071           -5.578575
 H            1.753369           -1.070327           -5.331196
 H            4.192626           -1.137107           -5.110439
 H            6.231628           -0.940020           -3.682263
 H            6.033024           -0.466524           -1.275050
 H            3.863010           -2.751867           -0.373349
 H            3.928341           -5.165226            0.135998
 H            3.952305           -7.000721            1.828668
 H            3.902858           -6.492667            4.234806
 H            3.832931           -4.130373            5.038921
 H            3.772650           -1.706689            4.517712
 H            3.715363            0.688106            4.011615
 H            3.646160            3.088306            3.529905
 H            3.579581            5.520455            3.050088
 H            3.555514            7.373252            1.377635
 H            3.626574            6.891561           -1.033650
 H            3.712346            4.537949           -1.862631
 H            3.760099            2.120027           -1.376367
 H            1.294017           -0.160618           -0.436155
 H           -1.158313           -0.110962           -0.676348

