98

 C          -10.848434           -0.707400            3.540224
 C          -10.814259           -1.814281            2.605597
 C           -9.864029           -1.876235            1.641958
 C           -8.849884           -0.837963            1.518806
 C           -7.871315           -0.887757            0.551705
 C           -6.879192            0.140572            0.444965
 C           -5.875003            0.095715           -0.534202
 C           -4.907211            1.108372           -0.626423
 C           -3.880830            1.075243           -1.624863
 C           -2.926739            2.064596           -1.706371
 C           -2.950338            3.165506           -0.756162
 C           -3.937394            3.224045            0.202811
 C           -4.942004            2.208261            0.300457
 C           -5.949539            2.255893            1.276802
 C           -6.917651            1.244216            1.368577
 C           -7.946539            1.276943            2.365376
 C           -8.886957            0.275364            2.453692
 C           -9.933033            0.288635            3.467077
 C           -1.913673            4.184133           -0.844128
 C           -0.947256            4.116298           -1.790801
 C           -0.928810            3.036592           -2.752549
 C           -1.874560            2.060140           -2.723083
 C           -1.867405            0.986223           -3.747449
 C           -2.468921            1.196805           -4.951948
 C           -2.450156            0.180809           -5.975063
 C           -1.824341           -1.004167           -5.761334
 C           -1.168676           -1.283312           -4.496013
 C           -0.520334           -2.488123           -4.271205
 C            0.108678           -2.762535           -3.027757
 C            0.784086           -3.988482           -2.787123
 C            1.388031           -4.246441           -1.565961
 C            2.091941           -5.492744           -1.320922
 C            2.676041           -5.738635           -0.120968
 C            2.600074           -4.770571            0.945243
 C            1.948217           -3.587008            0.768637
 C            1.855949           -2.621546            1.892162
 C            0.850412           -2.727804            2.801251
 C            0.770829           -1.824884            3.928043
 C            1.701792           -0.857413            4.107231
 C            2.797324           -0.686598            3.163566
 C            3.746387            0.297153            3.333511
 C            4.809998            0.476313            2.391582
 C            5.778179            1.480085            2.552058
 C            6.806506            1.651226            1.612673
 C            7.795312            2.677842            1.760085
 C            8.796318            2.843470            0.829524
 C            9.802584            3.888576            0.959041
 C           10.779046            4.037668            0.031883
 C           10.852080            3.154761           -1.114866
 C            9.942601            2.165094           -1.284229
 C            8.866159            1.961248           -0.324393
 C            7.927054            0.967371           -0.484380
 C            6.872601            0.781046            0.467763
 C            5.906671           -0.224465            0.309483
 C            4.877475           -0.395123            1.248800
 C            3.887533           -1.419308            1.098660
 C            2.874449           -1.578549            2.017386
 C            1.321083           -3.262597           -0.508333
 C            0.669482           -2.059978           -0.736594
 C            0.060676           -1.776997           -1.989163
 C           -0.594163           -0.540296           -2.237105
 C           -1.197961           -0.277548           -3.457467
 H          -11.632628           -0.708199            4.295832
 H          -11.576254           -2.585457            2.707934
 H           -9.826699           -2.700295            0.930463
 H           -7.831075           -1.716657           -0.154631
 H           -5.842779           -0.739830           -1.233825
 H           -3.872801            0.237343           -2.325699
 H           -3.970349            4.049759            0.913029
 H           -5.978997            3.090481            1.976596
 H           -7.964718            2.118477            3.057319
 H           -9.947414            1.128501            4.160468
 H           -1.946347            4.997054           -0.119671
 H           -0.161796            4.868186           -1.861915
 H           -0.136794            3.035163           -3.501580
 H           -2.975186            2.136293           -5.173371
 H           -2.948672            0.401002           -6.918416
 H           -1.793250           -1.777334           -6.527623
 H           -0.485044           -3.245022           -5.053828
 H            0.821286           -4.730611           -3.583680
 H            2.131733           -6.218134           -2.132228
 H            3.210389           -6.667849            0.074045
 H            3.075343           -5.016979            1.894684
 H            0.082766           -3.496233            2.709221
 H           -0.058220           -1.957357            4.622559
 H            1.660863           -0.176893            4.956902
 H            3.703055            0.965058            4.193319
 H            5.728988            2.138966            3.418404
 H            7.733157            3.329590            2.631074
 H            9.736209            4.542303            1.827707
 H           11.534007            4.817823            0.117870
 H           11.659782            3.317390           -1.826939
 H            9.985570            1.491922           -2.139630
 H            7.966841            0.300074           -1.345056
 H            5.953073           -0.883043           -0.558140
 H            3.955591           -2.075957            0.228322
 H            0.614131           -1.306842            0.053577
 H           -0.612719            0.209956           -1.442463

