98

 C            3.233228            4.547570           -4.051285
 C            2.693029            4.521579           -2.727160
 C            2.986506            3.488700           -1.878489
 C            3.842140            2.416741           -2.304438
 C            4.164813            1.335874           -1.442506
 C            4.986832            0.300132           -1.858499
 C            5.519967            0.327238           -3.195707
 C            5.214756            1.377656           -4.046350
 C            4.375102            2.440553           -3.622623
 C            4.047723            3.538237           -4.488698
 C            6.379703           -0.764176           -3.644445
 C            6.677857           -1.803123           -2.840040
 C            6.160722           -1.884906           -1.477335
 C            6.471283           -2.966902           -0.670066
 C            5.984430           -3.051468            0.660549
 C            6.295747           -4.175172            1.498058
 C            5.819844           -4.236666            2.779558
 C            5.015590           -3.180677            3.304463
 C            4.701977           -2.089291            2.530959
 C            3.894534           -0.988203            3.111619
 C            4.512475            0.026791            3.778309
 C            3.746128            1.087801            4.383867
 C            2.391199            1.091139            4.310078
 C            1.680223            0.036482            3.609895
 C            0.295696            0.028507            3.532484
 C           -0.394088           -0.991899            2.825574
 C           -1.812621           -1.013935            2.745629
 C           -2.476514           -1.999983            2.032893
 C           -3.932182           -2.055450            1.941460
 C           -4.743527           -1.068300            2.695672
 C           -5.191852            0.142794            2.053053
 C           -4.858119            0.457852            0.709483
 C           -5.303194            1.622404            0.103420
 C           -6.128810            2.528782            0.857638
 C           -6.456355            2.239072            2.171942
 C           -5.996604            1.050189            2.796373
 C           -6.329633            0.748102            4.159649
 C           -5.879874           -0.405104            4.743191
 C           -5.078714           -1.325636            4.003183
 C           -6.616267            3.749959            0.223504
 C           -6.304162            4.053461           -1.051536
 C           -5.460959            3.178131           -1.860558
 C           -5.146990            3.515131           -3.167529
 C           -4.326967            2.672778           -3.962499
 C           -3.992918            3.002712           -5.319683
 C           -3.198554            2.169865           -6.060410
 C           -2.686705            0.960916           -5.492691
 C           -2.987040            0.619252           -4.201910
 C           -3.821774            1.468689           -3.399096
 C           -4.151882            1.134957           -2.059386
 C           -4.955757            1.958254           -1.286291
 C           -4.547165           -3.014761            1.194880
 C           -3.776524           -4.010243            0.491235
 C           -2.421717           -4.018278            0.567932
 C           -1.712838           -3.017645            1.345711
 C           -0.328898           -3.018413            1.434428
 C            0.360250           -2.020265            2.173808
 C            1.777459           -2.013173            2.277515
 C            2.441423           -1.019201            2.979783
 C            5.173529           -2.000066            1.170537
 C            4.856202           -0.902492            0.327796
 C            5.323563           -0.827193           -0.975144
 H            2.979416            5.385036           -4.699103
 H            2.043808            5.337777           -2.413948
 H            2.577209            3.455938           -0.869539
 H            3.745102            1.334819           -0.433799
 H            5.616966            1.399532           -5.058837
 H            4.461241            3.546038           -5.495754
 H            6.769668           -0.703000           -4.661044
 H            7.318394           -2.618611           -3.176708
 H            7.098668           -3.772607           -1.050073
 H            6.915809           -4.971234            1.089277
 H            6.046093           -5.085518            3.423607
 H            4.658255           -3.256419            4.331354
 H            5.597826            0.060452            3.873863
 H            4.291722            1.876013            4.901356
 H            1.798677            1.881819            4.768730
 H           -0.285319            0.815529            4.013483
 H           -2.377480           -0.231518            3.257210
 H           -4.231603           -0.245928            0.153014
 H           -7.076915            2.925950            2.746763
 H           -6.945610            1.455419            4.712519
 H           -6.124490           -0.645082            5.777148
 H           -4.740477           -2.237713            4.495017
 H           -7.246378            4.403965            0.826853
 H           -6.671130            4.965035           -1.524375
 H           -5.528232            4.438146           -3.603523
 H           -4.385611            3.926587           -5.740945
 H           -2.940287            2.409393           -7.090672
 H           -2.054137            0.323881           -6.108945
 H           -2.599753           -0.296921           -3.757786
 H           -3.753625            0.206284           -1.643957
 H           -5.633524           -3.057692            1.115637
 H           -4.319555           -4.751385           -0.093927
 H           -1.827515           -4.769206            0.048674
 H            0.252824           -3.788960            0.928270
 H            2.341879           -2.809436            1.787248
 H            4.223362           -0.105962            0.731157

