98

 C           -6.483745           -4.499064            1.091502
 C           -5.276531           -4.479313            0.325346
 C           -4.771776           -3.296691           -0.144830
 C           -5.451428           -2.059495            0.120205
 C           -4.957801           -0.821876           -0.377128
 C           -5.605491            0.384224           -0.162348
 C           -6.796661            0.345847            0.657109
 C           -7.294829           -0.849261            1.150103
 C           -6.645388           -2.081318            0.885701
 C           -7.149958           -3.335228            1.367656
 C           -7.489473            1.581672            1.001547
 C           -7.044802            2.768381            0.555932
 C           -5.876642            2.866367           -0.314425
 C           -5.514961            4.124675           -0.759564
 C           -4.408318            4.304781           -1.624833
 C           -4.024069            5.610525           -2.080551
 C           -2.948033            5.764622           -2.911805
 C           -2.202249            4.622105           -3.334056
 C           -2.555965            3.366230           -2.918327
 C           -3.679743            3.163232           -2.044233
 C           -4.077435            1.857652           -1.591053
 C           -3.271154            0.749903           -2.165508
 C           -3.653184            0.154966           -3.331148
 C           -2.844597           -0.877084           -3.932098
 C           -1.684344           -1.275439           -3.351978
 C           -1.228082           -0.678528           -2.109410
 C           -0.050483           -1.084994           -1.501117
 C            0.384570           -0.500427           -0.281909
 C            1.587232           -0.911365            0.352595
 C            2.006357           -0.330457            1.538873
 C            3.248054           -0.723744            2.204925
 C            4.039607           -1.850523            1.647173
 C            5.148209           -1.695105            0.814128
 C            5.882931           -2.890142            0.459093
 C            5.468022           -4.143618            0.869547
 C            4.309912           -4.304947            1.669414
 C            3.867950           -5.605683            2.085092
 C            2.748847           -5.741525            2.861005
 C            2.017249           -4.584803            3.268814
 C            2.425661           -3.333390            2.891251
 C            3.591095           -3.149996            2.069283
 C            7.116962           -2.802681           -0.316565
 C            7.615351           -1.618683           -0.710671
 C            6.907234           -0.376091           -0.426069
 C            7.448701            0.815846           -0.879149
 C            6.773268            2.048196           -0.689751
 C            7.323366            3.300249           -1.124261
 C            6.628908            4.464138           -0.929503
 C            5.345360            4.446048           -0.299698
 C            4.795519            3.265091            0.121546
 C            5.504325            2.028780           -0.055661
 C            4.966838            0.794344            0.402360
 C            5.646444           -0.406968            0.281292
 C            3.642357           -0.112914            3.357922
 C            2.841421            0.929517            3.951553
 C            1.675858            1.321302            3.377604
 C            1.210342            0.713030            2.144148
 C            0.030024            1.116013            1.538580
 C           -0.407994            0.528065            0.322163
 C           -1.612459            0.936504           -0.310898
 C           -2.028994            0.358664           -1.499433
 C           -5.146415            1.681247           -0.710983
 H           -6.857353           -5.457769            1.447125
 H           -4.772049           -5.423216            0.126072
 H           -3.851636           -3.269306           -0.728010
 H           -4.027361           -0.885262           -0.939830
 H           -8.200417           -0.856805            1.756572
 H           -8.068473           -3.336087            1.951408
 H           -8.370714            1.502877            1.638994
 H           -7.546625            3.700335            0.819632
 H           -6.085459            5.001659           -0.451807
 H           -4.608661            6.467237           -1.749825
 H           -2.642790            6.748690           -3.263475
 H           -1.347810            4.771905           -3.992613
 H           -1.978038            2.500079           -3.247224
 H           -4.576218            0.442632           -3.834844
 H           -3.196644           -1.318110           -4.864198
 H           -1.061516           -2.049903           -3.798150
 H            0.561512           -1.864929           -1.954674
 H            2.183471           -1.698598           -0.115042
 H            6.036104           -5.030822            0.588188
 H            4.443368           -6.473981            1.768907
 H            2.398945           -6.721898            3.179875
 H            1.129447           -4.719784            3.885069
 H            1.859680           -2.455865            3.210707
 H            7.625163           -3.739948           -0.546795
 H            8.549836           -1.547814           -1.268045
 H            8.406829            0.820498           -1.398400
 H            8.299025            3.299998           -1.606350
 H            7.037155            5.421525           -1.248761
 H            4.819418            5.389483           -0.163844
 H            3.816885            3.238611            0.600248
 H            3.976018            0.852030            0.851689
 H            4.567937           -0.397439            3.858889
 H            3.202907            1.382427            4.874411
 H            1.056685            2.100267            3.821074
 H           -0.581130            1.896983            1.991621
 H           -2.212064            1.719437            0.159707

