90

 C           -4.914354            0.054660           -5.701269
 C           -5.953453           -0.819462           -5.329979
 C           -6.278608           -0.999829           -3.987626
 C           -5.552543           -0.294932           -2.975406
 C           -4.504366            0.574301           -3.364912
 C           -4.197748            0.742779           -4.736975
 C           -3.772104            1.258051           -2.331450
 C           -4.083471            1.087827           -1.017726
 C           -5.160357            0.233395           -0.574275
 C           -5.873555           -0.460371           -1.574999
 C           -6.945049           -1.362789           -1.224744
 C           -7.265391           -1.549277            0.096976
 C           -6.563151           -0.856480            1.130167
 C           -6.951404           -1.115714            2.482185
 C           -6.321882           -0.482185            3.521412
 C           -5.293602            0.449616            3.240441
 C           -4.903536            0.726887            1.941212
 C           -3.847214            1.768130            1.845632
 C           -4.189868            3.084034            1.747803
 C           -3.177454            4.111286            1.732301
 C           -1.862372            3.790171            1.826313
 C           -1.439082            2.406072            1.942920
 C           -0.098642            2.066695            2.045174
 C            0.309194            0.709799            2.145338
 C            1.679498            0.350361            2.253286
 C            2.068835           -0.976859            2.340848
 C            3.471446           -1.374963            2.450578
 C            4.510504           -0.320472            2.582118
 C            5.314505            0.187803            1.501891
 C            6.335039            1.117775            1.857305
 C            6.496650            1.563361            3.206802
 C            5.676640            1.092411            4.198535
 C            4.683861            0.135099            3.877962
 C            7.234826            1.635147            0.875731
 C            7.136218            1.262214           -0.441825
 C            8.064445            1.778289           -1.444294
 C            7.967014            1.429125           -2.742862
 C            6.926179            0.516243           -3.200837
 C            5.997793           -0.004187           -2.244048
 C            4.976663           -0.880215           -2.686356
 C            4.899252           -1.242819           -4.052890
 C            5.811071           -0.734226           -4.962229
 C            6.822908            0.149092           -4.540520
 C            4.029823           -1.362919           -1.715356
 C            4.124715           -1.010632           -0.404315
 C            5.178453           -0.161362            0.100726
 C            6.089468            0.353263           -0.845796
 C            3.817463           -2.691797            2.516573
 C            2.809431           -3.722553            2.473280
 C            1.494017           -3.403324            2.376470
 C            1.065807           -2.017453            2.309717
 C           -0.275349           -1.678249            2.213862
 C           -0.685319           -0.320606            2.133486
 C           -2.056412            0.040137            2.037431
 C           -2.444921            1.367549            1.948536
 C           -5.514324            0.058897            0.821902
 C           -7.665031           -2.067684           -2.281817
 C           -7.352408           -1.899331           -3.582429
 H           -4.679033            0.183692           -6.757212
 H           -6.500693           -1.354162           -6.104513
 H           -3.393517            1.418136           -5.024187
 H           -2.952852            1.913588           -2.628630
 H           -3.480043            1.617248           -0.281518
 H           -8.066452           -2.230617            0.384053
 H           -7.756250           -1.826390            2.667183
 H           -6.599317           -0.675377            4.556383
 H           -4.809309            0.957919            4.076687
 H           -5.233139            3.391723            1.674319
 H           -3.506501            5.146285            1.646140
 H           -1.087677            4.556218            1.816930
 H            0.666112            2.843731            2.047157
 H            2.429490            1.144725            2.262337
 H            7.283465            2.283788            3.428271
 H            5.778344            1.431370            5.228289
 H            4.053131           -0.250179            4.681584
 H            8.007830            2.332075            1.199957
 H            8.840415            2.459888           -1.095122
 H            8.658432            1.815856           -3.491307
 H            4.115577           -1.924225           -4.379682
 H            5.751917           -1.012596           -6.013884
 H            7.524275            0.543262           -5.274049
 H            3.224142           -2.011690           -2.060318
 H            3.358427           -1.376800            0.278019
 H            4.860407           -2.998172            2.600022
 H            3.141554           -4.758945            2.524781
 H            0.722976           -4.172384            2.345212
 H           -1.038603           -2.456506            2.195553
 H           -2.807117           -0.753520            2.030352
 H           -8.467165           -2.737714           -1.971742
 H           -7.888174           -2.426906           -4.371247

