90

 C            8.576671            2.291869           -5.095114
 C            7.318397            1.685407           -5.370565
 C            6.643892            1.009850           -4.383667
 C            7.185158            0.900598           -3.064323
 C            8.439974            1.505960           -2.793684
 C            9.124162            2.204362           -3.839654
 C            9.009575            1.415556           -1.486679
 C            8.356344            0.748581           -0.474626
 C            8.923773            0.650780            0.867366
 C            8.280095            0.003707            1.861326
 C            6.988607           -0.636960            1.640153
 C            6.402896           -0.574652            0.337742
 C            7.078238            0.125679           -0.730331
 C            6.499442            0.198841           -2.008101
 C            5.221967           -0.438680           -2.225098
 C            4.583137           -1.109010           -1.229419
 C            5.156652           -1.206299            0.092132
 C            4.517023           -1.909774            1.148233
 C            3.250580           -2.645368            0.913157
 C            3.287868           -3.927436            0.452858
 C            2.071910           -4.675366            0.248554
 C            0.863749           -4.118276            0.515868
 C            0.763892           -2.754955            1.005228
 C           -0.465566           -2.177613            1.284651
 C           -0.559044           -0.838047            1.746969
 C           -1.812547           -0.238233            2.043216
 C           -1.894897            1.075180            2.478452
 C           -3.166446            1.716967            2.796960
 C           -4.421730            0.932877            2.697983
 C           -5.127096            0.839617            1.467761
 C           -4.644417            1.452045            0.252561
 C           -5.341979            1.351643           -0.910250
 C           -6.593286            0.634257           -0.981100
 C           -7.086185            0.026559            0.185489
 C           -8.335536           -0.698148            0.155350
 C           -9.043918           -0.795868           -1.021222
 C           -8.561221           -0.190103           -2.221596
 C           -9.301478           -0.301463           -3.441948
 C           -8.838563            0.281221           -4.595115
 C           -7.613566            1.006752           -4.587874
 C           -6.885886            1.126511           -3.429533
 C           -7.337833            0.529262           -2.211178
 C           -8.814552           -1.314152            1.389645
 C           -8.115601           -1.226686            2.540550
 C           -6.849109           -0.506179            2.608074
 C           -6.349459            0.121086            1.424661
 C           -6.123398           -0.413709            3.793991
 C           -4.916917            0.304284            3.836260
 C           -3.208201            3.018093            3.199301
 C           -1.997325            3.790883            3.329455
 C           -0.789288            3.234930            3.059457
 C           -0.684819            1.852936            2.626720
 C            0.545122            1.273625            2.353623
 C            0.640779           -0.073953            1.915649
 C            1.895564           -0.680690            1.639499
 C            1.977219           -1.992163            1.198408
 C            5.093159           -1.943279            2.414495
 C            6.321624           -1.309176            2.662432
 H            9.090758            2.821947           -5.895398
 H            6.904136            1.767079           -6.374174
 H            5.678927            0.544475           -4.592203
 H           10.086064            2.663981           -3.616461
 H            9.975285            1.886971           -1.307517
 H            9.892074            1.124748            1.030887
 H            8.705910           -0.066610            2.862512
 H            4.777947           -0.367653           -3.220366
 H            3.616229           -1.586171           -1.403482
 H            4.234893           -4.419786            0.230990
 H            2.160614           -5.696067           -0.121526
 H           -0.062959           -4.672450            0.371445
 H           -1.383724           -2.749457            1.148662
 H           -2.719786           -0.833848            1.919524
 H           -3.697783            1.995474            0.294885
 H           -4.966466            1.815789           -1.824812
 H           -9.987969           -1.338387           -1.057031
 H          -10.237403           -0.858421           -3.434343
 H           -9.395435            0.199646           -5.527242
 H           -7.267311            1.462525           -5.514118
 H           -5.946254            1.681862           -3.421628
 H           -9.763538           -1.848847            1.339814
 H           -8.475591           -1.688181            3.460346
 H           -6.487728           -0.895625            4.700490
 H           -4.365168            0.369619            4.775036
 H           -4.154477            3.506206            3.432986
 H           -2.089551            4.827155            3.652445
 H            0.134015            3.804872            3.157198
 H            1.461788            1.852052            2.470495
 H            2.804212           -0.090970            1.779669
 H            4.589929           -2.472266            3.225019
 H            6.750856           -1.353443            3.662746

