90

 C           12.887971           -0.103709            1.003941
 C           12.361729            1.216591            1.084339
 C           11.081381            1.479377            0.663503
 C           10.251434            0.439920            0.138068
 C           10.779090           -0.875272            0.059867
 C           12.116965           -1.123522            0.504685
 C            9.977116           -1.938312           -0.458972
 C            8.690681           -1.708305           -0.892066
 C            7.854017           -2.781072           -1.423872
 C            6.597372           -2.551508           -1.858800
 C            6.010881           -1.215610           -1.820198
 C            6.793832           -0.140907           -1.294422
 C            6.242691            1.163935           -1.240074
 C            4.930991            1.388414           -1.717744
 C            4.186020            0.336414           -2.236602
 C            2.822685            0.580438           -2.769669
 C            2.660312            0.957007           -4.068733
 C            1.344935            1.196015           -4.609814
 C            0.240743            1.049665           -3.834603
 C            0.354411            0.652185           -2.442596
 C           -0.767197            0.503036           -1.640709
 C           -0.650893            0.116098           -0.278939
 C           -1.792803           -0.040420            0.552228
 C           -1.669195           -0.417933            1.880427
 C           -2.822228           -0.588064            2.758601
 C           -4.185429           -0.342102            2.226149
 C           -4.708399            0.969299            2.247544
 C           -5.996961            1.218569            1.784086
 C           -6.791862            0.141031            1.282922
 C           -6.253587           -1.169998            1.253896
 C           -4.942543           -1.397386            1.732147
 C           -7.070361           -2.242828            0.737083
 C           -8.335758           -2.008618            0.296697
 C           -8.914060           -0.685220            0.326514
 C           -8.136020            0.378150            0.813757
 C           -8.674755            1.718104            0.854047
 C           -9.960160            1.951693            0.419879
 C          -10.773963            0.886068           -0.074642
 C          -12.110515            1.138348           -0.521072
 C          -12.892873            0.116212           -0.997270
 C          -12.380167           -1.210757           -1.051268
 C          -11.101481           -1.477644           -0.627950
 C          -10.259600           -0.435686           -0.126692
 C           -7.826201            2.793460            1.361490
 C           -6.570452            2.560562            1.797459
 C           -2.659870           -0.967516            4.056842
 C           -1.344501           -1.206733            4.597947
 C           -0.240373           -1.058066            3.823062
 C           -0.354047           -0.659035            2.431545
 C            0.767546           -0.509136            1.629774
 C            0.651288           -0.121989            0.268130
 C            1.793148            0.034400           -0.563124
 C            1.669582            0.411381           -1.891419
 C            4.721504           -0.969251           -2.283025
 C            7.047496            2.233767           -0.698428
 C            8.313657            2.002591           -0.258657
 C            8.904784            0.685663           -0.314024
 C            8.138744           -0.374765           -0.825735
 H           13.906209           -0.285782            1.344011
 H           12.991670            2.009502            1.484533
 H           10.676836            2.491157            0.724181
 H           12.508905           -2.137485            0.437727
 H           10.408726           -2.937766           -0.504844
 H            8.290032           -3.780228           -1.453772
 H            5.976372           -3.355453           -2.254948
 H            4.508687            2.391904           -1.678793
 H            3.516572            1.085936           -4.730845
 H            1.273500            1.495509           -5.654620
 H           -0.758944            1.224718           -4.230353
 H           -1.761330            0.683410           -2.049950
 H           -2.780296            0.142130            0.123249
 H           -4.091909            1.780631            2.633589
 H           -4.530413           -2.405667            1.712876
 H           -6.641427           -3.244366            0.711931
 H           -8.948901           -2.824067           -0.093187
 H          -10.382101            2.955954            0.446353
 H          -12.492388            2.157256           -0.474006
 H          -13.910143            0.301320           -1.338538
 H          -13.019051           -2.005428           -1.433122
 H          -10.707478           -2.494586           -0.667997
 H           -8.252744            3.797020            1.372443
 H           -5.940547            3.366328            2.175617
 H           -3.516384           -1.097983            4.718343
 H           -1.273043           -1.508160            5.642152
 H            0.759410           -1.232857            4.218807
 H            1.761686           -0.689616            2.039063
 H            2.780633           -0.148390           -0.134142
 H            4.114124           -1.778368           -2.687422
 H            6.608629            3.230289           -0.654056
 H            8.917755            2.815606            0.150213

