62

 C           -8.870314           -0.903614            1.203549
 C           -8.591955           -1.280290           -0.143194
 C           -7.459218           -0.827321           -0.771335
 C           -6.544132            0.032863           -0.083938
 C           -5.372056            0.542864           -0.725215
 C           -4.516967            1.381298           -0.047642
 C           -3.330049            1.961802           -0.721283
 C           -3.475204            3.060084           -1.514900
 C           -2.339062            3.648282           -2.180249
 C           -1.099930            3.115262           -2.032917
 C           -0.886170            1.944479           -1.201204
 C            0.376542            1.393005           -1.045586
 C            0.583406            0.250313           -0.227834
 C            1.873604           -0.320135           -0.057227
 C            2.066376           -1.436007            0.742238
 C            3.379047           -2.042624            0.939600
 C            4.564320           -1.445767            0.277141
 C            5.270103           -0.426187            0.873400
 C            6.436720            0.110149            0.243668
 C            7.199804            1.159098            0.849800
 C            8.328301            1.641160            0.235867
 C            8.753344            1.107097           -1.016076
 C            8.035760            0.107661           -1.623668
 C            6.855896           -0.415957           -1.005758
 C            6.091155           -1.463164           -1.612375
 C            4.978374           -1.966122           -0.989726
 C            3.524554           -3.148111            1.722538
 C            2.387376           -3.743296            2.380164
 C            1.147600           -3.210685            2.235677
 C            0.932771           -2.034665            1.411590
 C           -0.330497           -1.484077            1.255814
 C           -0.537708           -0.339110            0.441043
 C           -1.827389            0.233505            0.271821
 C           -2.019167            1.350855           -0.526043
 C           -4.779461            1.732979            1.314342
 C           -5.896714            1.254181            1.947902
 C           -6.815702            0.398643            1.259913
 C           -8.004547           -0.089243            1.889619
 H           -9.780929           -1.273657            1.672083
 H           -9.295831           -1.930708           -0.660395
 H           -7.238218           -1.109430           -1.799628
 H           -5.172843            0.260083           -1.758297
 H           -4.450389            3.522587           -1.666117
 H           -2.512012            4.527762           -2.798985
 H           -0.232541            3.546675           -2.530699
 H            1.233780            1.834389           -1.554294
 H            2.720286            0.139049           -0.571956
 H            4.955221           -0.017346            1.832987
 H            6.867220            1.561095            1.805664
 H            8.917424            2.435179            0.692651
 H            9.655644            1.507361           -1.475857
 H            8.351613           -0.305933           -2.580174
 H            6.414456           -1.852319           -2.577128
 H            4.391962           -2.765965           -1.440707
 H            4.500449           -3.608808            1.874345
 H            2.560392           -4.627578            2.992116
 H            0.280318           -3.647135            2.729131
 H           -1.188158           -1.929052            1.760518
 H           -2.674776           -0.226331            0.784588
 H           -4.076878            2.389280            1.827210
 H           -6.107155            1.518205            2.983660
 H           -8.208146            0.203190            2.918572

