96

 C           -6.713527           -2.367033           -0.907436
 C           -6.358362           -1.350847           -0.073731
 C           -5.552064           -0.281622           -0.590004
 C           -5.022740            0.873015           -0.037238
 C           -5.032099            1.492849            1.276922
 C           -6.192810            1.442863            2.068143
 C           -6.192598            2.027469            3.336526
 C           -5.043983            2.663174            3.819517
 C           -3.890252            2.718365            3.030348
 C           -3.879550            2.136555            1.761451
 O           -4.291641            1.570227           -1.012198
 C           -4.368385            0.824270           -2.197066
 C           -3.696691            1.436489           -3.335965
 C           -4.177527            2.663827           -3.823952
 C           -3.564591            3.275307           -4.918130
 C           -2.463324            2.668265           -5.530753
 C           -1.975163            1.452590           -5.048487
 C           -2.583703            0.827077           -3.948747
 C           -2.027842           -0.458095           -3.460570
 C           -2.222414           -1.600367           -4.177847
 C           -1.671125           -2.856234           -3.732205
 C           -0.935988           -2.924077           -2.593590
 C           -0.691342           -1.738007           -1.792557
 C            0.060462           -1.797911           -0.628818
 C            0.289723           -0.637412            0.157237
 C            1.056514           -0.686264            1.352210
 C            1.277144            0.451451            2.113112
 C            2.061943            0.434545            3.344388
 C            2.631407           -0.848329            3.822765
 C            2.041695           -1.480581            4.928781
 C            2.542755           -2.695625            5.399515
 C            3.638132           -3.295002            4.769157
 C            4.232827           -2.676401            3.668803
 C            3.739027           -1.449874            3.192369
 C            4.390043           -0.829507            2.045855
 C            5.145577            0.308344            1.830464
 C            5.564583            1.393079            2.672127
 C            6.326701            2.383773            2.133390
 C            6.716286            2.368233            0.738136
 C            6.340073            1.361807           -0.097799
 C            5.541746            0.289720            0.424963
 C            4.995206           -0.856301           -0.128364
 C            4.970146           -1.459154           -1.450335
 C            6.120342           -1.428040           -2.257643
 C            6.087195           -1.995832           -3.533119
 C            4.915796           -2.595556           -4.007232
 C            3.772020           -2.630918           -3.202679
 C            3.794407           -2.065781           -1.926250
 O            4.283618           -1.561909            0.854716
 C            2.253107            1.575882            4.064215
 C            1.690547            2.829213            3.625630
 C            0.951518            2.896411            2.489536
 C            0.711936            1.711797            1.684979
 C           -0.040787            1.771554            0.521757
 C           -0.267237            0.611942           -0.266239
 C           -1.030854            0.661328           -1.463339
 C           -1.250488           -0.476212           -2.224624
 C           -5.124405           -0.314061           -1.986002
 C           -5.521742           -1.408627           -2.825212
 C           -6.293224           -2.395838           -2.293468
 H           -7.324693           -3.195891           -0.554422
 H           -6.655609           -1.322821            0.971823
 H           -7.090285            0.956871            1.688167
 H           -7.091440            1.989294            3.949931
 H           -5.047674            3.114615            4.809876
 H           -2.995285            3.211671            3.407182
 H           -2.980748            2.169720            1.143529
 H           -5.033499            3.134664           -3.338565
 H           -3.943862            4.224354           -5.293485
 H           -1.982978            3.146436           -6.383541
 H           -1.109595            0.986522           -5.519700
 H           -2.798441           -1.596523           -5.102269
 H           -1.866391           -3.739801           -4.338096
 H           -0.514206           -3.865566           -2.244162
 H            0.481780           -2.746554           -0.295981
 H            1.480409           -1.645361            1.658400
 H            1.180092           -1.020946            5.413453
 H            2.076389           -3.179674            6.256728
 H            4.026615           -4.244133            5.134887
 H            5.083686           -3.141631            3.169260
 H            5.254374            1.389956            3.714360
 H            6.664325            3.224586            2.736601
 H            7.321860            3.199206            0.380270
 H            6.614152            1.343366           -1.149949
 H            7.035038           -0.969411           -1.884414
 H            6.977703           -1.972562           -4.159276
 H            4.893913           -3.034068           -5.003156
 H            2.858941           -3.095134           -3.572879
 H            2.903094           -2.083089           -1.296508
 H            2.835326            1.573162            4.984788
 H            1.881242            3.711728            4.234666
 H            0.521976            3.836223            2.145208
 H           -0.465934            2.719277            0.191440
 H           -1.452507            1.620764           -1.771354
 H           -5.188785           -1.415362           -3.860444
 H           -6.615302           -3.243590           -2.895290

