96

 C            7.000960            0.017028           -4.424224
 C            7.421752            1.010891           -3.597656
 C            7.296438            0.831407           -2.177512
 C            7.636098            1.605651           -1.081658
 C            8.210531            2.927008           -0.886902
 C            9.126244            3.164462            0.153741
 C            9.661267            4.441133            0.329931
 C            9.288704            5.485174           -0.522792
 C            8.378442            5.249392           -1.559660
 C            7.837971            3.976518           -1.744390
 O            7.320365            0.919718            0.098667
 C            6.751991           -0.307051           -0.275620
 C            6.338898           -1.148705            0.834587
 C            7.122565           -1.218147            1.999106
 C            6.712827           -2.021075            3.064985
 C            5.529788           -2.761217            2.977838
 C            4.744760           -2.692565            1.816731
 C            3.490369           -3.481756            1.730400
 C            3.547969           -4.832058            1.564292
 C            2.343015           -5.621341            1.485519
 C            1.123141           -5.033404            1.579292
 C            1.000276           -3.599272            1.764487
 C           -0.240432           -2.991727            1.874532
 C           -0.358510           -1.587157            2.055026
 C           -1.623626           -0.951139            2.164909
 C           -1.726432            0.421241            2.335009
 C           -3.012953            1.102496            2.441624
 C           -4.263998            0.313846            2.375703
 C           -4.690362           -0.418403            3.493147
 C           -5.885805           -1.140915            3.436917
 C           -6.661126           -1.138929            2.274476
 C           -6.229876           -0.416374            1.151331
 C           -7.022595           -0.417375           -0.065955
 C           -7.791793           -1.348097           -0.746740
 C           -8.133346           -2.720125           -0.506978
 C           -8.928777           -3.366111           -1.404287
 C           -9.432642           -2.702262           -2.588280
 C           -9.135718           -1.402281           -2.856209
 C           -8.296138           -0.682816           -1.942739
 C           -7.806984            0.614146           -1.914911
 C           -7.936101            1.783685           -2.765512
 C           -8.037434            3.064334           -2.191747
 C           -8.166186            4.185432           -3.011854
 C           -8.190906            4.040870           -4.402792
 C           -8.092285            2.767229           -4.974820
 C           -7.963154            1.638923           -4.163393
 O           -7.021301            0.796901           -0.769303
 C           -5.029620            0.313716            1.203126
 C           -3.070886            2.459007            2.601807
 C           -1.867837            3.245833            2.678437
 C           -0.645743            2.657337            2.583410
 C           -0.522974            1.220042            2.405849
 C            0.714996            0.611152            2.306309
 C            0.831553           -0.794961            2.126927
 C            2.097166           -1.429491            2.017950
 C            2.203699           -2.799534            1.838634
 C            5.146233           -1.885809            0.744052
 C            6.724423           -0.405713           -1.658005
 C            6.296566           -1.426684           -2.569361
 C            6.435338           -1.212090           -3.909283
 H            7.080919            0.113346           -5.507016
 H            7.859098            1.934546           -3.970333
 H            9.414944            2.349277            0.816694
 H           10.370192            4.626438            1.136767
 H            9.701874            6.482138           -0.377470
 H            8.084023            6.063378           -2.220476
 H            7.120319            3.794967           -2.544397
 H            8.046952           -0.644836            2.065076
 H            7.314890           -2.068355            3.972165
 H            5.212614           -3.385030            3.813190
 H            4.502442           -5.352920            1.483895
 H            2.445881           -6.697111            1.350311
 H            0.204546           -5.616844            1.518382
 H           -1.151141           -3.589028            1.824669
 H           -2.522999           -1.566625            2.110908
 H           -4.092185           -0.415118            4.403913
 H           -6.217521           -1.704246            4.307520
 H           -7.601283           -1.687546            2.244263
 H           -7.745428           -3.207859            0.383386
 H           -9.213459           -4.407111           -1.256805
 H          -10.060029           -3.286955           -3.260382
 H           -9.512293           -0.886185           -3.736791
 H           -8.017253            3.170973           -1.107035
 H           -8.247165            5.176492           -2.566418
 H           -8.282712            4.918727           -5.040581
 H           -8.110574            2.655919           -6.058276
 H           -7.874498            0.649070           -4.610815
 H           -4.697920            0.875205            0.329167
 H           -4.026710            2.976040            2.676480
 H           -1.969156            4.321194            2.815697
 H            0.271438            3.240214            2.636169
 H            1.628049            1.204454            2.363877
 H            2.995423           -0.810947            2.079799
 H            4.530361           -1.823016           -0.153778
 H            5.881451           -2.347598           -2.168451
 H            6.127804           -1.964637           -4.633573

