94

 C           -5.847166            1.533005           -7.239740
 C           -4.692742            0.653615           -7.238100
 C           -4.244753            0.090317           -6.092904
 C           -4.920216            0.356572           -4.823206
 N           -4.455137           -0.222384           -3.718818
 C           -5.094655            0.026135           -2.505248
 C           -4.596284           -0.603403           -1.349183
 C           -5.207422           -0.393620           -0.107271
 C           -6.346906            0.490457           -0.021668
 C           -6.845174            1.120696           -1.176565
 C           -6.241061            0.899289           -2.419107
 C           -6.714293            1.503556           -3.631158
 C           -6.082910            1.249057           -4.825001
 C           -6.509202            1.817769           -6.092919
 N           -6.989192            0.744113            1.188742
 C           -6.539020            0.154984            2.294715
 C           -7.227166            0.426827            3.555587
 C           -6.807830           -0.150774            4.704674
 C           -5.668363           -1.047391            4.717278
 C           -4.996886           -1.336055            3.576868
 C           -5.394481           -0.757770            2.303708
 C           -4.755927           -1.026331            1.108165
 C           -3.622194           -1.981790            1.042633
 C           -3.861621           -3.299604            0.791989
 C           -2.777472           -4.249129            0.737406
 C           -1.496823           -3.847457            0.936974
 C           -1.184339           -2.454868            1.204284
 C            0.121715           -2.035967            1.407462
 C            0.424514           -0.670420            1.653991
 C            1.759441           -0.229048            1.858824
 C            2.046289            1.108165            2.084416
 C            3.405472            1.595352            2.294786
 C            4.529903            0.626851            2.286593
 C            5.000405            0.068909            3.459807
 C            4.429768            0.343723            4.768434
 C            4.939483           -0.223690            5.887845
 C            6.072403           -1.125903            5.817019
 C            6.646392           -1.431057            4.630743
 C            6.136842           -0.851419            3.389120
 N            6.732689           -1.182515            2.245475
 C            6.260682           -0.635418            1.053887
 C            6.907159           -1.001866           -0.140628
 C            6.476523           -0.481089           -1.365830
 C            7.101971           -0.813803           -2.613283
 C            6.637762           -0.271625           -3.787664
 C            7.222616           -0.558090           -5.087076
 C            6.722876            0.004455           -6.213269
 C            5.588773            0.908213           -6.157547
 C            4.998216            1.217297           -4.980588
 C            5.494604            0.643920           -3.729902
 N            4.891165            0.975663           -2.591024
 C            5.358830            0.432066           -1.395475
 C            4.711768            0.797155           -0.199852
 C            5.145341            0.282522            1.027738
 C            3.650452            2.920189            2.498336
 C            2.569720            3.875132            2.518454
 C            1.287104            3.471582            2.336406
 C            0.969381            2.072523            2.112539
 C           -0.338155            1.651767            1.923008
 C           -0.642855            0.284039            1.691093
 C           -1.978214           -0.158295            1.490852
 C           -2.263503           -1.493694            1.252949
 H           -6.157675            1.952027           -8.196331
 H           -4.202182            0.465499           -8.193410
 H           -3.378637           -0.573949           -6.059998
 H           -3.722725           -1.258395           -1.438561
 H           -7.709923            1.782064           -1.086043
 H           -7.582902            2.161528           -3.579559
 H           -7.377239            2.476458           -6.081428
 H           -8.080704            1.106063            3.512819
 H           -7.311657            0.038916            5.652771
 H           -5.375137           -1.476245            5.674672
 H           -4.135417           -2.007217            3.575974
 H           -4.873801           -3.669990            0.625651
 H           -3.024147           -5.290230            0.531904
 H           -0.667070           -4.553051            0.898871
 H            0.940133           -2.755923            1.374041
 H            2.562610           -0.968237            1.830833
 H            3.573645            1.020298            4.810573
 H            4.515952           -0.023078            6.871163
 H            6.441629           -1.547485            6.752263
 H            7.498384           -2.107994            4.543347
 H            7.748278           -1.697381           -0.094201
 H            7.949206           -1.500907           -2.603342
 H            8.073101           -1.238759           -5.115941
 H            7.152718           -0.202031           -7.192869
 H            5.232228            1.326697           -7.099040
 H            4.142677            1.892059           -4.907564
 H            3.862742            1.487903           -0.247806
 H            4.664335            3.292776            2.648342
 H            2.820890            4.922418            2.683452
 H            0.460204            4.181477            2.348526
 H           -1.155330            2.373548            1.944268
 H           -2.782484            0.579403            1.524448

