94

 C           15.757561           -0.864115            0.247182
 C           15.594666            0.221699           -0.701695
 C           14.379629            0.529785           -1.210170
 C           13.195709           -0.230400           -0.812057
 N           12.017899            0.098205           -1.338772
 C           10.885072           -0.622662           -0.963437
 C            9.649772           -0.269632           -1.537621
 C            8.487127           -0.967724           -1.192346
 C            7.206178           -0.665733           -1.763023
 C            6.095927           -1.389480           -1.398475
 C            4.777827           -1.161625           -1.961198
 C            3.714400           -1.911661           -1.571567
 C            2.372180           -1.725209           -2.171446
 C            2.106620           -2.230980           -3.408577
 C            0.802833           -2.078491           -4.005860
 C           -0.187722           -1.426723           -3.346233
 C            0.040987           -0.862207           -2.028116
 C           -0.962968           -0.188004           -1.349900
 C           -0.732813            0.371278           -0.064774
 C           -1.754082            1.064493            0.638497
 C           -1.520990            1.609172            1.891745
 C           -2.550135            2.324236            2.639852
 C           -3.902615            2.466965            2.050413
 C           -4.818689            1.466223            2.119802
 C           -6.143417            1.628621            1.550250
 C           -7.107111            0.649286            1.592426
 C           -8.400782            0.881005            1.017843
 C           -9.417314           -0.080712            1.036414
 C          -10.672192            0.203742            0.466877
 N          -11.655813           -0.783535            0.509257
 C          -12.850396           -0.527448           -0.019760
 C          -13.877536           -1.567010            0.029206
 C          -15.105389           -1.342157           -0.491945
 C          -15.436388           -0.072619           -1.112111
 C          -14.522994            0.924691           -1.189260
 C          -13.184269            0.752961           -0.649760
 C          -12.218202            1.729448           -0.698633
 C          -10.918607            1.491066           -0.140206
 C           -9.900062            2.451154           -0.163187
 C           -8.644927            2.165838            0.404419
 N           -7.659267            3.151610            0.357553
 C           -6.470547            2.900383            0.900315
 C           -5.440923            3.938193            0.848369
 C           -4.223431            3.728421            1.395981
 C           -2.277789            2.859326            3.862760
 C           -0.968516            2.725014            4.452935
 C            0.019833            2.062178            3.800780
 C           -0.212514            1.476232            2.492750
 C            0.791460            0.799612            1.816251
 C            0.560891            0.233650            0.534098
 C            1.580483           -0.462980           -0.169079
 C            1.345991           -1.007711           -1.422052
 C            3.864447           -2.951489           -0.561775
 C            5.067908           -3.212326           -0.005272
 C            6.253757           -2.454012           -0.403971
 N            7.425058           -2.762416            0.146831
 C            8.559907           -2.045942           -0.233713
 C            9.795047           -2.401018            0.338133
 C           10.959935           -1.709027           -0.014466
 C           12.246818           -2.034815            0.528874
 C           13.360285           -1.323434            0.150134
 C           14.695400           -1.599752            0.653882
 H           16.763336           -1.062907            0.616095
 H           16.487528            0.778213           -0.988392
 H           14.226801            1.340284           -1.925629
 H            9.615265            0.552406           -2.256620
 H            7.139263            0.142973           -2.492494
 H            4.675586           -0.374474           -2.709044
 H            2.867305           -2.767032           -3.976122
 H            0.645675           -2.503776           -4.996363
 H           -1.178239           -1.305583           -3.783689
 H           -1.949510           -0.076542           -1.800590
 H           -2.734912            1.162796            0.169211
 H           -4.588348            0.516879            2.605128
 H           -6.911480           -0.316281            2.061624
 H           -9.251907           -1.059841            1.492396
 H          -13.600013           -2.511816            0.500920
 H          -15.882947           -2.106110           -0.462692
 H          -16.443726            0.045019           -1.510355
 H          -14.759317            1.882141           -1.653478
 H          -12.416475            2.699104           -1.157935
 H          -10.066033            3.430406           -0.618240
 H           -5.710086            4.872995            0.351490
 H           -3.442567            4.490505            1.366090
 H           -3.039159            3.397532            4.427340
 H           -0.806300            3.170894            5.433604
 H            1.012629            1.951129            4.235951
 H            1.779694            0.695129            2.264947
 H            2.562327           -0.559849            0.298331
 H            2.969168           -3.508805           -0.279701
 H            5.211693           -3.988230            0.750058
 H            9.830252           -3.223946            1.055870
 H           12.316238           -2.856623            1.243255
 H           14.805150           -2.417923            1.365661

