90

 C           10.592934            0.375068            1.829403
 C            9.877590           -0.122165            2.889003
 C            8.556944           -0.632971            2.688514
 C            7.988017           -0.620661            1.388216
 C            8.757359           -0.097821            0.289874
 C           10.031064            0.386711            0.525373
 C            8.169555           -0.092928           -1.062369
 C            8.871644            0.385215           -2.154216
 C            8.296870            0.390707           -3.452486
 C            7.025373           -0.084610           -3.650628
 C            6.269523           -0.597124           -2.549679
 C            6.836661           -0.601640           -1.248631
 C            6.065997           -1.123274           -0.150385
 C            4.794877           -1.612842           -0.381696
 C            4.236914           -1.618657           -1.692224
 C            2.890392           -2.205200           -1.900691
 C            2.776837           -3.459659           -2.420826
 C            1.482087           -4.053092           -2.645758
 C            0.347787           -3.371744           -2.344868
 C            0.408839           -2.033288           -1.785142
 C           -0.745370           -1.329486           -1.476293
 C           -0.683190           -0.022630           -0.923444
 C           -1.859252            0.707186           -0.601868
 C           -1.790182            1.975299           -0.045800
 C           -2.977798            2.747957            0.305336
 C           -4.325351            2.172779            0.075296
 C           -5.142708            2.676264           -0.910741
 C           -6.453858            2.142094           -1.100636
 C           -6.913804            1.087779           -0.269385
 C           -8.241554            0.569003           -0.463832
 C           -9.042942            1.110028           -1.453118
 C           -8.575362            2.162239           -2.283875
 C           -7.311080            2.668295           -2.117716
 C           -8.717362           -0.527880            0.399076
 C           -9.982677           -1.065957            0.251325
 C          -10.434659           -2.122489            1.085462
 C           -9.618319           -2.633365            2.062370
 C           -8.303226           -2.103446            2.249942
 C           -7.844446           -1.048955            1.417948
 C           -6.518402           -0.526314            1.615850
 C           -5.720514           -1.059673            2.611585
 C           -6.187071           -2.112250            3.442640
 C           -7.447237           -2.625806            3.269703
 C           -6.041399            0.569565            0.751761
 C           -4.779251            1.109389            0.907903
 C           -2.862540            3.995737            0.841884
 C           -1.567722            4.584696            1.077122
 C           -0.433786            3.906113            0.768636
 C           -0.495426            2.573614            0.195295
 C            0.659043            1.875359           -0.125717
 C            0.598018            0.571541           -0.685310
 C            1.773766           -0.154950           -1.015985
 C            1.703359           -1.431641           -1.551677
 C            4.954245           -1.115992           -2.753263
 C            6.656641           -1.133325            1.200956
 C            5.961199           -1.629493            2.288463
 C            6.538673           -1.644341            3.585626
 C            7.805603           -1.158125            3.786309
 H           11.599947            0.766750            1.968700
 H           10.298779           -0.136923            3.893020
 H           10.633143            0.789098           -0.290863
 H            9.886472            0.769216           -2.039072
 H            8.884946            0.778311           -4.284150
 H            6.572820           -0.083340           -4.641038
 H            4.190828           -2.014317            0.434933
 H            3.659260           -4.045571           -2.678930
 H            1.450063           -5.058125           -3.064409
 H           -0.637553           -3.804657           -2.513269
 H           -1.724006           -1.774979           -1.656070
 H           -2.828641            0.247876           -0.806793
 H           -4.804110            3.485474           -1.556854
 H          -10.055376            0.737173           -1.615641
 H           -9.239381            2.557261           -3.052442
 H           -6.940416            3.473621           -2.750002
 H          -10.662714           -0.687582           -0.513505
 H          -11.439143           -2.515850            0.933600
 H           -9.953965           -3.444023            2.707145
 H           -4.711118           -0.679317            2.780213
 H           -5.525553           -2.499623            4.217050
 H           -7.815501           -3.432833            3.901158
 H           -4.101391            0.736837            1.679364
 H           -3.744637            4.577729            1.110229
 H           -1.535273            5.584965            1.507083
 H            0.551698            4.337939            0.939534
 H            1.637258            2.324303            0.048294
 H            2.743955            0.315330           -0.841725
 H            4.533890           -1.110208           -3.758305
 H            4.949716           -2.022944            2.170625
 H            5.956332           -2.049380            4.412728
 H            8.258447           -1.164553            4.776581

