96

 C            6.536294           -7.004756           -2.312392
 C            7.907251           -6.605319           -2.054407
 C            8.253994           -5.299756           -1.982534
 C            7.246455           -4.255330           -2.162910
 N            7.625980           -2.981440           -2.085068
 C            6.670633           -1.979599           -2.256212
 C            7.080998           -0.638540           -2.172056
 C            6.153431            0.400257           -2.339705
 C            6.544586            1.775209           -2.248178
 C            5.631653            2.792449           -2.414839
 C            6.023227            4.190101           -2.299221
 C            5.117558            5.183335           -2.464637
 C            3.738265            4.882354           -2.777002
 C            3.314527            3.596148           -2.900805
 C            1.902928            3.311399           -3.259729
 C            1.560740            3.098412           -4.561214
 C            0.187893            2.863473           -4.935491
 C           -0.794026            2.858795           -3.998915
 C           -0.486413            3.072555           -2.596133
 C           -1.481893            3.066982           -1.630784
 C           -1.174532            3.261929           -0.257944
 C           -2.186880            3.269816            0.739202
 C           -1.874493            3.444602            2.078417
 C           -2.891262            3.463001            3.125537
 C           -4.321710            3.333139            2.752104
 C           -5.089921            4.444878            2.601304
 C           -6.492054            4.338831            2.263890
 C           -7.075226            3.127839            2.098365
 C           -6.306809            1.899741            2.244755
 C           -6.890127            0.663577            2.078736
 C           -6.128731           -0.543171            2.204940
 C           -6.718127           -1.804029            2.030778
 C           -5.947305           -2.972733            2.148876
 N           -6.571842           -4.206006            1.962994
 C           -5.848602           -5.318808            2.070905
 C           -6.509008           -6.607735            1.868821
 C           -5.807185           -7.759994            1.967599
 C           -4.390104           -7.751323            2.279710
 C           -3.727663           -6.586513            2.478425
 C           -4.417165           -5.311264            2.381136
 C           -3.794056           -4.099275            2.564118
 C           -4.538436           -2.879818            2.453198
 C           -3.957085           -1.617039            2.626865
 C           -4.725175           -0.446898            2.511754
 C           -4.142490            0.849364            2.692768
 C           -4.891795            1.997656            2.568942
 C           -2.541165            3.614511            4.433530
 C           -1.159096            3.768989            4.815969
 C           -0.178412            3.775901            3.878183
 C           -0.493104            3.616166            2.469887
 C            0.501953            3.621854            1.504186
 C            0.191396            3.452219            0.128926
 C            1.201637            3.465768           -0.870204
 C            0.889885            3.289618           -2.209174
 C            4.240738            2.479952           -2.706076
 C            3.843192            1.164388           -2.787111
 C            4.772672            0.089513           -2.604645
 C            4.364937           -1.252277           -2.681618
 C            5.285006           -2.295325           -2.513810
 C            4.914841           -3.677739           -2.588468
 C            5.862506           -4.659759           -2.420854
 C            5.562164           -6.079842           -2.487264
 H            6.324679           -8.072146           -2.359874
 H            8.645075           -7.396926           -1.921712
 H            9.276693           -4.968499           -1.791415
 H            8.132559           -0.419586           -1.974352
 H            7.591322            1.996983           -2.038556
 H            7.067654            4.402350           -2.072907
 H            5.396162            6.232737           -2.373341
 H            3.053754            5.719602           -2.914697
 H            2.311439            3.106868           -5.351733
 H           -0.028678            2.697661           -5.990033
 H           -1.836708            2.695030           -4.268682
 H           -2.521730            2.907568           -1.916617
 H           -3.226004            3.134435            0.431033
 H           -4.672735            5.443539            2.731364
 H           -7.055046            5.264982            2.152242
 H           -8.131809            3.032702            1.849994
 H           -7.951258            0.577257            1.843692
 H           -7.781871           -1.894265            1.800513
 H           -7.575988           -6.582629            1.638513
 H           -6.282985           -8.729280            1.817110
 H           -3.884915           -8.713852            2.348110
 H           -2.664503           -6.564888            2.716366
 H           -2.729839           -4.041602            2.795748
 H           -2.892887           -1.540291            2.852550
 H           -3.077946            0.905874            2.932471
 H           -3.293502            3.624794            5.222345
 H           -0.935790            3.881991            5.876072
 H            0.868907            3.900097            4.151280
 H            1.544741            3.755229            1.792563
 H            2.238687            3.618552           -0.563426
 H            2.800353            0.913183           -2.994291
 H            3.316962           -1.484203           -2.874191
 H            3.871085           -3.928553           -2.781028
 H            4.528972           -6.365344           -2.682930

