96

 C          -15.154007            2.033520           -0.774004
 C          -13.915064            2.432016           -0.397460
 C          -12.878822            1.459759           -0.077646
 C          -11.611790            1.843441            0.300960
 C          -10.601725            0.874392            0.607475
 C           -9.306362            1.260383            0.989861
 C           -8.327065            0.303174            1.286702
 C           -6.995470            0.649873            1.687397
 C           -6.077395           -0.334509            1.970066
 C           -4.718733           -0.055708            2.395717
 C           -3.852847           -1.066466            2.669372
 C           -2.470418           -0.795736            3.130727
 C           -2.176157           -0.826685            4.460484
 C           -0.840654           -0.546885            4.928313
 C            0.149823           -0.244030            4.051494
 C           -0.105104           -0.204703            2.622619
 C            0.901034            0.099589            1.717999
 C            0.649237            0.125605            0.320505
 C            1.673029            0.431716           -0.615928
 C            1.418375            0.451199           -1.978346
 C            2.450041            0.755677           -2.964730
 C            3.829885            1.035311           -2.500875
 C            4.206658            2.426774           -2.295142
 C            5.454273            2.756900           -1.893887
 C            6.459735            1.721113           -1.656455
 N            7.680227            2.089863           -1.273994
 C            8.642509            1.106130           -1.045859
 C            9.929493            1.506463           -0.647926
 C           10.928500            0.552137           -0.406645
 C           12.247553            0.938871           -0.000735
 C           13.223704           -0.000315            0.243264
 C           14.566139            0.377849            0.663639
 C           15.512156           -0.560962            0.905319
 C           15.214217           -1.970255            0.745834
 C           13.983299           -2.377754            0.353304
 C           12.923992           -1.414933            0.084573
 C           11.664705           -1.808235           -0.309050
 C           10.631660           -0.848631           -0.564827
 C            9.344118           -1.244820           -0.962004
 C            8.341886           -0.296918           -1.208296
 C            7.016654           -0.654001           -1.620068
 C            6.074769            0.321576           -1.850264
 C            4.720135            0.032526           -2.281598
 C            2.157729            0.781057           -4.294859
 C            0.823222            0.497132           -4.763089
 C           -0.168113            0.196006           -3.886680
 C            0.085446            0.160392           -2.457346
 C           -0.920783           -0.143695           -1.552862
 C           -0.669264           -0.168262           -0.155099
 C           -1.693295           -0.473323            0.781310
 C           -1.438743           -0.492657            2.143894
 C           -4.260010           -2.457337            2.527974
 C           -5.512674           -2.778148            2.134839
 C           -6.493334           -1.732825            1.842136
 N           -7.720248           -2.091952            1.471953
 C           -8.659194           -1.099024            1.191803
 C           -9.953645           -1.489013            0.809014
 C          -10.930099           -0.525310            0.517303
 C          -12.256436           -0.901528            0.126300
 C          -13.210395            0.046275           -0.167427
 C          -14.559957           -0.321587           -0.573330
 C          -15.483803            0.625204           -0.864578
 H          -15.935507            2.751619           -1.017880
 H          -13.654331            3.487086           -0.322159
 H          -11.351270            2.899250            0.374264
 H           -9.059387            2.320162            1.056466
 H           -6.730060            1.705027            1.764335
 H           -4.420314            0.988800            2.491699
 H           -2.940078           -1.056459            5.203310
 H           -0.660417           -0.583031            6.002158
 H            1.161597           -0.023734            4.390538
 H            1.907300            0.323447            2.072686
 H            2.673879            0.653266           -0.239826
 H            3.443381            3.185540           -2.475879
 H            5.765289            3.791364           -1.731455
 H           10.137820            2.571981           -0.528313
 H           12.458546            2.002792            0.110506
 H           14.775367            1.441228            0.775931
 H           16.517652           -0.288984            1.223655
 H           16.012594           -2.681648            0.951862
 H           13.746342           -3.433516            0.226698
 H           11.427866           -2.864830           -0.433493
 H            9.121019           -2.305407           -1.080056
 H            6.774837           -1.709951           -1.747261
 H            4.444764           -1.012672           -2.425850
 H            2.921659            1.010956           -5.037623
 H            0.644318            0.529437           -5.837288
 H           -1.179290           -0.025928           -4.226185
 H           -1.926657           -0.369058           -1.907460
 H           -2.694083           -0.694765            0.405195
 H           -3.515365           -3.223788            2.749268
 H           -5.846035           -3.811959            2.019852
 H          -10.185990           -2.554114            0.741172
 H          -12.491432           -1.964591            0.067164
 H          -14.793147           -1.384201           -0.633576
 H          -16.494465            0.360760           -1.172493

