96

 C          -11.219533           -3.737189            1.746084
 C          -10.000289           -3.223736            2.037674
 C           -9.495819           -2.045906            1.344860
 C           -8.255579           -1.515017            1.618733
 C           -7.772031           -0.357832            0.925088
 C           -6.505887            0.184314            1.197431
 C           -6.043189            1.314968            0.510236
 C           -4.761582            1.903911            0.759678
 C           -4.350776            3.006932            0.047340
 C           -3.064596            3.668512            0.243702
 C           -2.147450            3.160174            1.293843
 C           -2.097676            3.775156            2.508736
 C           -1.193334            3.314539            3.533744
 C           -0.367022            2.262751            3.305143
 C           -0.379941            1.567721            2.030418
 C            0.460093            0.491312            1.787819
 C            0.439313           -0.189405            0.541641
 C            1.291222           -1.296994            0.283514
 C            1.265091           -1.953771           -0.936797
 C            2.119163           -3.100619           -1.228860
 C            3.023013           -3.619757           -0.172471
 C            4.318682           -2.978754            0.028634
 C            4.751625           -1.885535           -0.685801
 C            6.042056           -1.318037           -0.432606
 C            6.528280           -0.199209           -1.123144
 C            7.802073            0.322165           -0.846579
 C            8.309742            1.466957           -1.543729
 C            9.556376            1.979192           -1.263779
 C           10.084978            3.144756           -1.959413
 C           11.309255            3.641436           -1.660077
 C           12.130946            3.020316           -0.640246
 C           11.692877            1.928568            0.031170
 C           10.383720            1.352279           -0.244366
 C            9.919938            0.247154            0.431900
 C            8.623511           -0.301004            0.159952
 C            8.143746           -1.419979            0.854913
 C            6.865381           -1.935611            0.579626
 N            6.418871           -3.039311            1.304459
 C            5.208938           -3.535462            1.049508
 C            4.751697           -4.683798            1.829040
 C            3.531639           -5.222191            1.602868
 C            2.653169           -4.687280            0.584210
 C            2.077460           -3.708704           -2.447368
 C            1.180435           -3.241795           -3.476004
 C            0.351254           -2.192556           -3.246371
 C            0.357668           -1.502830           -1.968532
 C           -0.483976           -0.428105           -1.725215
 C           -0.465312            0.250955           -0.477745
 C           -1.318990            1.356700           -0.218833
 C           -1.291381            2.015112            1.000870
 C           -2.716250            4.743906           -0.512012
 C           -3.609149            5.267816           -1.523858
 C           -4.821693            4.710653           -1.744746
 C           -5.255653            3.552173           -0.966857
 N           -6.458289            3.036663           -1.217572
 C           -6.882290            1.922465           -0.495108
 C           -8.152982            1.386262           -0.765969
 C           -8.609973            0.256222           -0.073290
 C           -9.899086           -0.311544           -0.339289
 C          -10.340648           -1.426960            0.335112
 C          -11.643174           -2.021585            0.067330
 C          -12.059320           -3.122978            0.736974
 H          -11.605538           -4.619198            2.255228
 H           -9.359257           -3.672560            2.795595
 H           -7.612060           -1.968896            2.372251
 H           -5.871033           -0.280953            1.952411
 H           -4.120174            1.456818            1.524158
 H           -2.734702            4.630385            2.735898
 H           -1.196478            3.841389            4.487393
 H            0.329346            1.910340            4.065595
 H            1.154082            0.152745            2.557860
 H            1.973630           -1.625216            1.070800
 H            4.121560           -1.430839           -1.455146
 H            5.905817            0.272715           -1.884233
 H            7.679354            1.926287           -2.304932
 H            9.457694            3.598162           -2.726015
 H           11.713198            4.514223           -2.171231
 H           13.105891            3.461991           -0.437918
 H           12.299718            1.447411            0.797479
 H           10.530474           -0.235983            1.195266
 H            8.755425           -1.903771            1.619406
 H            5.437466           -5.070265            2.585661
 H            3.172345           -6.076852            2.177140
 H            1.686116           -5.170868            0.445353
 H            2.713790           -4.564516           -2.674250
 H            1.190194           -3.762941           -4.432675
 H           -0.341825           -1.837487           -4.008497
 H           -1.176813           -0.088532           -2.495751
 H           -2.003636            1.682822           -1.004998
 H           -1.756297            5.242637           -0.377201
 H           -3.266915            6.129799           -2.097628
 H           -5.518031            5.088401           -2.496031
 H           -8.776914            1.862550           -1.525196
 H          -10.522511            0.165095           -1.096261
 H          -12.263555           -1.545967           -0.691523
 H          -13.029503           -3.577709            0.541082

