110

 C            6.380154           -6.482299           -0.790498
 C            5.265897           -6.267563           -1.693876
 C            4.729331           -5.035270           -1.850377
 C            5.243492           -3.884000           -1.115918
 C            6.356832           -4.104967           -0.198921
 C            6.899650           -5.454083           -0.080964
 C            6.874019           -3.060682            0.522720
 C            6.337742           -1.730673            0.404869
 C            6.861747           -0.672288            1.140808
 C            6.334412            0.637197            1.024304
 C            6.866624            1.724810            1.762041
 C            6.337770            3.004936            1.639636
 C            6.871577            4.119296            2.380913
 C            6.340108            5.377309            2.260826
 C            6.865973            6.512824            3.011228
 C            6.326013            7.746874            2.882564
 C            5.207174            7.977964            1.987347
 C            4.678315            6.963458            1.264886
 C            5.211906            5.609314            1.363134
 C            4.684790            4.568486            0.643247
 C            5.220814            3.235418            0.749086
 C            4.693513            2.175314            0.019904
 C            5.230558            0.867825            0.132155
 C            4.707226           -0.216507           -0.615115
 C            5.234627           -1.499141           -0.501366
 C            4.717788           -2.618211           -1.263258
 C            3.622602           -2.359739           -2.231840
 C            3.922352           -2.047894           -3.524164
 C            2.877476           -1.808139           -4.488359
 C            1.571899           -1.890468           -4.127716
 C            1.194020           -2.213434           -2.763508
 C           -0.137454           -2.298067           -2.385545
 C           -0.503118           -2.601106           -1.047159
 C           -1.864188           -2.691953           -0.648608
 C           -2.210342           -2.976990            0.662902
 C           -3.597894           -3.081357            1.103711
 C           -4.693562           -2.908252            0.116811
 C           -5.220934           -1.574829           -0.092582
 C           -4.701064           -0.459904            0.557877
 C           -5.235604            0.835600            0.347609
 C           -4.706328            1.973868            1.007128
 C           -5.245397            3.239465            0.803628
 C           -4.717357            4.403651            1.468199
 C           -5.256735            5.647654            1.265509
 C           -4.731452            6.834146            1.932293
 C           -5.273286            8.055209            1.716871
 C           -6.397640            8.219385            0.813831
 C           -6.929579            7.154514            0.170433
 C           -6.390004            5.812113            0.359323
 C           -6.913406            4.722059           -0.286564
 C           -6.366704            3.402592           -0.096291
 C           -6.887264            2.293677           -0.753976
 C           -6.343060            0.999682           -0.554745
 C           -6.861710           -0.138117           -1.220056
 C           -6.326601           -1.405195           -1.009346
 C           -6.853521           -2.560869           -1.685356
 C           -6.325643           -3.809230           -1.481344
 C           -6.858963           -4.982038           -2.165818
 C           -6.329402           -6.210836           -1.965416
 C           -5.213413           -6.394711           -1.057267
 C           -4.685362           -5.343863           -0.387988
 C           -5.210431           -3.993215           -0.558482
 C           -3.897490           -3.339793            2.407773
 C           -2.852445           -3.529572            3.383007
 C           -1.546958           -3.456813            3.020083
 C           -1.169285           -3.178914            1.645890
 C            0.162113           -3.101991            1.266191
 C            0.527699           -2.816854           -0.076186
 C            1.888717           -2.737179           -0.477109
 C            2.234974           -2.446248           -1.787344
 H            6.776558           -7.493214           -0.709066
 H            4.881917           -7.130312           -2.235883
 H            3.891024           -4.862783           -2.528514
 H            7.738585           -5.595554            0.599285
 H            7.709501           -3.213406            1.205666
 H            7.694142           -0.843527            1.822673
 H            7.705433            1.542657            2.432973
 H            7.714960            3.928916            3.044020
 H            7.707366            6.324405            3.677012
 H            6.708607            8.600369            3.440536
 H            4.815666            8.991859            1.922203
 H            3.839642            7.121087            0.587587
 H            3.841700            4.724584           -0.029712
 H            3.851947            2.341366           -0.653195
 H            3.870237           -0.027539           -1.291875
 H            4.956618           -1.973782           -3.860536
 H            3.174633           -1.563608           -5.507475
 H            0.771332           -1.715649           -4.845336
 H           -0.926737           -2.128674           -3.118089
 H           -2.641888           -2.530283           -1.398686
 H           -3.861692           -0.571905            1.248694
 H           -3.861565            1.843107            1.684026
 H           -3.870448            4.264185            2.140054
 H           -3.888337            6.694388            2.608051
 H           -4.888313            8.947089            2.208786
 H           -6.790866            9.225796            0.677611
 H           -7.774782            7.261599           -0.508394
 H           -7.760303            4.826359           -0.964118
 H           -7.729017            2.409031           -1.435898
 H           -7.696387           -0.007877           -1.908111
 H           -7.690835           -2.413286           -2.367148
 H           -7.699424           -4.825329           -2.840757
 H           -6.718766           -7.092537           -2.471936
 H           -4.821257           -7.403379           -0.937044
 H           -3.845924           -5.471745            0.298696
 H           -4.931776           -3.411228            2.744706
 H           -3.149636           -3.734347            4.410791
 H           -0.746213           -3.601400            3.744276
 H            0.951509           -3.258368            2.001578
 H            2.666384           -2.908354            0.270970

