110

 C          -14.370525            1.553117            2.128605
 C          -13.681834            1.291995            3.379278
 C          -12.415426            0.815364            3.385297
 C          -11.703543            0.550770            2.139603
 C          -10.418283            0.073915            2.125801
 C           -9.726741           -0.184535            0.888518
 C           -8.423047           -0.668047            0.867357
 C           -7.750633           -0.916403           -0.356090
 C           -6.422927           -1.411678           -0.388365
 C           -5.769004           -1.642563           -1.594518
 C           -4.421145           -2.148678           -1.639397
 C           -3.774341           -2.364665           -2.829049
 C           -4.457547           -2.072504           -4.086151
 C           -5.744893           -1.599155           -4.074160
 C           -6.450484           -1.370171           -2.840296
 C           -7.757662           -0.894421           -2.819290
 C           -8.433432           -0.658646           -1.596084
 C           -9.764749           -0.171292           -1.563614
 C          -10.415781            0.068493           -0.358515
 C          -11.766281            0.568613           -0.311661
 C          -12.398341            0.808115            0.881163
 C          -13.762478            1.321888            0.942063
 C           -3.740136           -2.294294           -5.336068
 C           -2.473630           -2.769995           -5.339394
 C           -1.793199           -3.075876           -4.098054
 C           -2.405832           -2.885414           -2.900902
 C           -1.696308           -3.213293           -1.639313
 C           -1.679684           -4.494457           -1.176370
 C           -0.971993           -4.833648            0.033974
 C           -0.309963           -3.881502            0.738711
 C           -0.300964           -2.498417            0.296869
 C            0.368848           -1.516867            1.011898
 C            0.374728           -0.165423            0.575423
 C            1.057507            0.849068            1.299378
 C            1.059414            2.165026            0.863865
 C            1.748575            3.229833            1.586863
 C            2.448059            2.907717            2.855484
 C            1.838193            3.139326            4.046936
 C            2.508170            2.843618            5.296348
 C            3.762522            2.337021            5.306479
 C            4.476172            2.069436            4.063378
 C            5.750813            1.562754            4.065197
 C            6.451706            1.286013            2.838512
 C            7.745417            0.774353            2.831623
 C            8.415258            0.488866            1.615812
 C            9.732079           -0.037138            1.597955
 C           10.376008           -0.328445            0.400447
 C           11.710753           -0.870353            0.368780
 C           12.334937           -1.162652           -0.816380
 C           13.682079           -1.720950           -0.861588
 C           14.282558           -2.004570           -2.040589
 C           13.602666           -1.756738           -3.298685
 C           12.351771           -1.241070           -3.319165
 C           11.648414           -0.919321           -2.082113
 C           10.378385           -0.403086           -2.082696
 C            9.694930           -0.089374           -0.853704
 C            8.406068            0.432761           -0.846939
 C            7.740707            0.733387            0.368642
 C            6.427539            1.266700            0.386380
 C            5.779228            1.546240            1.585273
 C            4.445592            2.089736            1.615519
 C            3.802664            2.350239            2.798373
 C            1.739444            4.508870            1.117755
 C            1.037465            4.846244           -0.096360
 C            0.371884            3.894524           -0.797968
 C            0.355936            2.513245           -0.350541
 C           -0.316540            1.532413           -1.063441
 C           -0.325026            0.181457           -0.625125
 C           -1.008778           -0.832321           -1.348456
 C           -1.007638           -2.149132           -0.915165
 H          -15.387326            1.938940            2.184566
 H          -14.222069            1.492952            4.303166
 H          -11.886530            0.613340            4.316164
 H           -9.884896           -0.121610            3.055837
 H           -7.898993           -0.861303            1.803280
 H           -5.911919           -1.611075            0.554020
 H           -3.925131           -2.355135           -0.687901
 H           -6.266759           -1.381181           -5.005594
 H           -8.279105           -0.694848           -3.754824
 H          -10.277281            0.016245           -2.506729
 H          -12.272954            0.753310           -1.258568
 H          -14.267423            1.511635           -0.004367
 H           -4.265079           -2.061448           -6.261716
 H           -1.927684           -2.938100           -6.266971
 H           -0.775798           -3.461791           -4.159626
 H           -2.197627           -5.293468           -1.706614
 H           -0.985895           -5.874409            0.355502
 H            0.233802           -4.123697            1.651162
 H            0.905530           -1.773715            1.925405
 H            1.588398            0.570986            2.212620
 H            0.830585            3.551710            4.097615
 H            1.964392            3.045208            6.218513
 H            4.279991            2.111750            6.238240
 H            6.265525            1.353166            5.002563
 H            8.260396            0.584129            3.772700
 H           10.238831           -0.213832            2.546300
 H           12.211715           -1.043773            1.320868
 H           14.180700           -1.900320            0.090248
 H           15.286295           -2.424586           -2.084728
 H           14.136062           -2.000433           -4.216235
 H           11.829527           -1.048964           -4.255839
 H            9.851288           -0.217473           -3.018291
 H            7.888170            0.615845           -1.788284
 H            5.923075            1.456231           -0.561534
 H            3.956952            2.287468            0.658389
 H            2.259053            5.308025            1.646421
 H            1.058014            5.885330           -0.422843
 H           -0.168926            4.135258           -1.712511
 H           -0.852431            1.788774           -1.977502
 H           -1.542182           -0.553771           -2.260051

