86

 C            6.384053           -3.953064            2.071886
 C            5.235406           -3.483679            2.811111
 C            4.684598           -2.273603            2.538047
 C            5.228760           -1.415713            1.499256
 C            6.368427           -1.894169            0.751069
 C            6.924120           -3.194627            1.084489
 C            6.912711           -1.113024           -0.255681
 C            6.369002            0.160503           -0.569983
 C            6.931244            0.965495           -1.597573
 C            6.405897            2.211863           -1.899962
 C            6.975642            3.057624           -2.934505
 C            6.443059            4.275444           -3.210276
 C            5.289320            4.757168           -2.485220
 C            4.720254            4.001941           -1.511401
 C            5.257720            2.696786           -1.169284
 C            4.700709            1.918115           -0.166670
 C            5.238603            0.645336            0.165562
 C            4.690946           -0.162820            1.209488
 C            3.554864            0.363731            2.008188
 C            3.797987            1.088912            3.136166
 C            2.711245            1.601067            3.933777
 C            1.422341            1.366722            3.579849
 C            1.103627            0.601414            2.387677
 C           -0.209829            0.353504            2.018325
 C           -0.515673           -0.389486            0.846967
 C           -1.857416           -0.654638            0.461013
 C           -2.145791           -1.372950           -0.688634
 C           -3.513196           -1.665411           -1.108126
 C           -4.651160           -1.202657           -0.273428
 C           -5.249816            0.063810           -0.556855
 C           -4.755321            0.923109           -1.575109
 C           -5.364278            2.137260           -1.852264
 C           -4.871977            3.018591           -2.896427
 C           -5.493571            4.194593           -3.166932
 C           -6.659479            4.600666           -2.415490
 C           -7.150377            3.817073           -1.421634
 C           -6.523376            2.548317           -1.094028
 C           -7.005455            1.728748           -0.085729
 C           -6.389274            0.481488            0.205444
 C           -6.889241           -0.361535            1.232801
 C           -6.293686           -1.581634            1.509849
 C           -6.804520           -2.453884            2.553468
 C           -6.214854           -3.647387            2.817597
 C           -5.058092           -4.075188            2.065986
 C           -4.548744           -3.296512            1.077756
 C           -5.145701           -2.013968            0.746523
 C           -3.756252           -2.363767           -2.252951
 C           -2.670252           -2.835886           -3.075615
 C           -1.381435           -2.598765           -2.723033
 C           -1.062719           -1.859036           -1.514733
 C            0.250744           -1.613927           -1.143582
 C            0.556619           -0.883201            0.035523
 C            1.898498           -0.630343            0.429062
 C            2.186943            0.091751            1.576411
 H            6.794811           -4.927338            2.332459
 H            4.829642           -4.130560            3.587260
 H            3.813436           -1.912998            3.088337
 H            7.788434           -3.534481            0.515749
 H            7.774021           -1.468195           -0.820734
 H            7.790676            0.583959           -2.147669
 H            7.842569            2.680688           -3.475076
 H            6.864724            4.920027           -3.980195
 H            4.896624            5.738009           -2.747948
 H            3.847742            4.349048           -0.958685
 H            3.829435            2.280657            0.383870
 H            4.816607            1.297396            3.464374
 H            2.963288            2.176042            4.824179
 H            0.592294            1.743148            4.176476
 H           -1.031866            0.729651            2.627994
 H           -2.667726           -0.279696            1.090634
 H           -3.876616            0.611923           -2.144819
 H           -3.990057            2.700034           -3.451302
 H           -5.135396            4.861193           -3.949685
 H           -7.125015            5.550620           -2.674068
 H           -8.026179            4.111869           -0.845425
 H           -7.872465            2.031558            0.500340
 H           -7.758668           -0.033634            1.801959
 H           -7.676937           -2.115849            3.110871
 H           -6.591727           -4.310406            3.594848
 H           -4.612686           -5.036080            2.318730
 H           -3.672750           -3.610358            0.506872
 H           -4.774792           -2.584924           -2.573046
 H           -2.922554           -3.386891           -3.980832
 H           -0.551694           -2.954821           -3.332382
 H            1.072593           -1.982182           -1.758269
 H            2.708679           -1.017467           -0.193284

