98

 C           15.547111            1.839092           -0.145852
 C           14.606630            1.440091            0.743856
 C           13.286971            1.012077            0.300820
 C           12.316487            0.607345            1.189869
 C           11.019756            0.198587            0.738723
 C           10.021305           -0.205087            1.639087
 C            8.753843           -0.601984            1.186438
 C            7.725769           -1.011806            2.096854
 C            6.488264           -1.408948            1.643715
 C            5.433156           -1.829955            2.555362
 C            4.227225           -2.236063            2.093949
 C            3.954399           -2.263094            0.665801
 C            2.626632           -2.752984            0.223645
 C            2.444800           -4.074521           -0.052224
 C            1.161930           -4.568859           -0.488487
 C            0.109197           -3.725543           -0.636162
 C            0.245292           -2.307409           -0.355341
 C           -0.823419           -1.436630           -0.504414
 C           -0.685271           -0.050761           -0.225476
 C           -1.773144            0.850798           -0.373754
 C           -1.629850            2.201651           -0.097405
 C           -2.729548            3.151166           -0.234969
 C           -4.060389            2.661719           -0.667844
 C           -4.424636            2.833910           -2.065155
 C           -5.636719            2.432212           -2.514039
 C           -6.609084            1.820269           -1.618869
 C           -7.851700            1.422505           -2.057279
 C           -8.798409            0.824448           -1.163154
 C          -10.070818            0.425200           -1.599768
 C          -10.989764           -0.162326           -0.716285
 C          -12.291151           -0.573993           -1.151283
 C          -13.183107           -1.158871           -0.280517
 C          -14.506153           -1.591383           -0.708897
 C          -15.368097           -2.169851            0.161579
 C          -14.996855           -2.368676            1.548163
 C          -13.779955           -1.981822            2.000990
 C          -12.809317           -1.360636            1.110234
 C          -11.565027           -0.967233            1.550108
 C          -10.619441           -0.361300            0.660286
 C           -9.346639            0.039153            1.097063
 C           -8.429161            0.630382            0.214421
 C           -7.129816            1.050778            0.648482
 C           -6.239094            1.634048           -0.225037
 C           -4.924453            2.082497            0.206072
 C           -2.544441            4.474236            0.032234
 C           -1.261188            4.968726            0.466994
 C           -0.210313            4.123890            0.620127
 C           -0.348107            2.705243            0.343729
 C            0.720596            1.834310            0.493383
 C            0.582433            0.448300            0.216325
 C            1.670524           -0.453376            0.363665
 C            1.526419           -1.804098            0.087902
 C            4.897296           -1.864505           -0.227040
 C            6.208250           -1.417329            0.216841
 C            7.177942           -1.015503           -0.674508
 C            8.473168           -0.598325           -0.225273
 C            9.470172           -0.191109           -1.125407
 C           10.737936            0.207700           -0.672666
 C           11.764057            0.627511           -1.580272
 C           13.002805            1.021265           -1.125227
 C           14.055270            1.453796           -2.034410
 C           15.265486            1.844675           -1.567294
 H           16.535653            2.164185            0.175128
 H           14.804350            1.427152            1.815051
 H           12.516774            0.590689            2.260857
 H           10.233890           -0.208855            2.707906
 H            7.950056           -1.002175            3.163260
 H            5.653493           -1.806024            3.622516
 H            3.430246           -2.553569            2.766004
 H            3.261071           -4.789609            0.047140
 H            1.072121           -5.634780           -0.694083
 H           -0.864640           -4.083155           -0.968295
 H           -1.791374           -1.808270           -0.841076
 H           -2.733886            0.457767           -0.712784
 H           -3.689123            3.292514           -2.725699
 H           -5.923735            2.554242           -3.558381
 H           -8.142155            1.556125           -3.099089
 H          -10.349801            0.572561           -2.642840
 H          -12.558925           -0.412346           -2.195105
 H          -14.771687           -1.432220           -1.753327
 H          -16.358266           -2.499752           -0.149084
 H          -15.729030           -2.835755            2.205175
 H          -13.488036           -2.121835            3.041075
 H          -11.273487           -1.111131            2.590184
 H           -9.065743           -0.112183            2.139150
 H           -6.861872            0.898893            1.693929
 H           -4.660707            1.942794            1.254629
 H           -3.360042            5.189821           -0.069213
 H           -1.169758            6.035269            0.668495
 H            0.763329            4.481105            0.953458
 H            1.689176            2.206867            0.827442
 H            2.632526           -0.060406            0.699310
 H            4.701928           -1.873075           -1.299431
 H            6.977791           -1.009503           -1.745805
 H            9.256189           -0.183702           -2.193982
 H           11.538863            0.628813           -2.646440
 H           13.830102            1.449785           -3.100174
 H           16.058560            2.171163           -2.238413

