98

 C          -12.484916           -0.472633            2.510213
 C          -11.738680            0.448780            3.343468
 C          -10.501320            0.863510            2.979950
 C           -9.887048            0.399954            1.743494
 C           -8.631822            0.811976            1.355833
 C           -8.042433            0.349307            0.134650
 C           -6.766537            0.769952           -0.271842
 C           -6.195887            0.302899           -1.466344
 C           -4.896435            0.727098           -1.895235
 C           -4.337475            0.257548           -3.062817
 C           -5.072415           -0.696057           -3.878746
 C           -6.327848           -1.108059           -3.490636
 C           -6.930095           -0.624951           -2.284714
 C           -8.210828           -1.036944           -1.884220
 C           -8.782185           -0.568713           -0.691185
 C          -10.087228           -0.983409           -0.269141
 C          -10.636406           -0.523653            0.906643
 C          -11.960923           -0.936383            1.350272
 C           -4.452537           -1.196025           -5.097523
 C           -3.221563           -0.776917           -5.476280
 C           -2.490424            0.183843           -4.680482
 C           -3.017406            0.681975           -3.530213
 C           -2.260073            1.681652           -2.736974
 C           -2.386603            3.009693           -3.012680
 C           -1.631492            3.992189           -2.274596
 C           -0.778840            3.612928           -1.289361
 C           -0.611144            2.211792           -0.946989
 C            0.253504            1.813140            0.061237
 C            0.405371            0.441972            0.399145
 C            1.286137            0.021732            1.432016
 C            1.424583           -1.318763            1.756667
 C            2.315356           -1.780219            2.816799
 C            3.072036           -0.780707            3.610731
 C            2.561106           -0.312564            4.780742
 C            3.290690            0.649101            5.576785
 C            4.503993            1.099831            5.177870
 C            5.105713            0.633778            3.936777
 C            6.342085            1.080545            3.526329
 C            6.926835            0.629655            2.299648
 C            8.187273            1.079087            1.875309
 C            8.742072            0.640872            0.663394
 C           10.025340            1.095581            0.216205
 C           10.559047            0.663846           -0.977073
 C           11.860710            1.118433           -1.446874
 C           12.370723            0.680522           -2.622893
 C           11.632055           -0.254336           -3.447692
 C           10.415160           -0.706767           -3.060713
 C            9.816149           -0.271681           -1.806492
 C            8.581305           -0.720842           -1.395585
 C            8.007374           -0.286463           -0.156607
 C            6.751660           -0.743270            0.272641
 C            6.196427           -0.304570            1.485225
 C            4.916509           -0.763556            1.936135
 C            4.373005           -0.322625            3.122155
 C            2.442160           -3.108402            3.091906
 C            1.687606           -4.090707            2.353244
 C            0.834400           -3.711312            1.368685
 C            0.665829           -2.310037            1.027248
 C           -0.199591           -1.911237            0.019856
 C           -0.351514           -0.540033           -0.317946
 C           -1.232027           -0.119971           -1.350979
 C           -1.369753            1.220408           -1.676442
 H          -13.474084           -0.774704            2.850956
 H          -12.208165            0.790522            4.264497
 H           -9.927323            1.554230            3.596628
 H           -8.057410            1.501209            1.974591
 H           -6.208858            1.470118            0.350769
 H           -4.354568            1.438221           -1.267136
 H           -6.890461           -1.816694           -4.097551
 H           -8.769533           -1.731850           -2.510175
 H          -10.637148           -1.676440           -0.905162
 H          -12.509036           -1.629846            0.713776
 H           -5.016219           -1.917446           -5.687717
 H           -2.746633           -1.144307           -6.385089
 H           -1.507286            0.494432           -5.034163
 H           -3.057187            3.361898           -3.796338
 H           -1.768084            5.039685           -2.539813
 H           -0.197632            4.343550           -0.728000
 H            0.832450            2.554733            0.611901
 H            1.860362            0.779330            1.970209
 H            1.591975           -0.648026            5.149951
 H            2.828962            0.991357            6.502093
 H            5.066519            1.822348            5.768022
 H            6.902466            1.792791            4.131256
 H            8.742847            1.779868            2.497641
 H           10.570943            1.796603            0.847326
 H           12.403397            1.821670           -0.816282
 H           13.342587            1.014240           -2.983456
 H           12.089777           -0.574579           -4.382260
 H            9.846979           -1.407736           -3.670983
 H            8.011598           -1.418818           -2.008697
 H            6.197484           -1.449532           -0.346053
 H            4.376536           -1.477492            1.309732
 H            3.112753           -3.460900            3.875454
 H            1.825145           -5.138440            2.617301
 H            0.253511           -4.441831            0.807022
 H           -0.779057           -2.652645           -0.530279
 H           -1.806378           -0.877514           -1.888867

