98

 C          -12.406984           -2.901325            0.220062
 C          -11.921907           -1.851522           -0.485424
 C          -10.615883           -1.282305           -0.182447
 C          -10.106146           -0.215640           -0.887726
 C           -8.817977            0.331522           -0.579719
 C           -8.289722            1.416862           -1.295237
 C           -7.025510            1.942751           -0.985229
 C           -6.468501            3.043024           -1.712786
 C           -5.226920            3.552007           -1.401730
 C           -4.653017            4.661601           -2.149414
 C           -3.432848            5.158424           -1.834416
 C           -2.670258            4.603638           -0.738396
 C           -3.155784            3.567503           -0.003443
 C           -2.369086            3.036212            1.137542
 C           -2.496016            3.600860            2.371116
 C           -1.713623            3.125332            3.485547
 C           -0.830057            2.107867            3.326068
 C           -0.658405            1.464453            2.035779
 C            0.239730            0.421884            1.863640
 C            0.395417           -0.212244            0.602343
 C            1.307010           -1.286219            0.415708
 C            1.452559           -1.898941           -0.819070
 C            2.371292           -3.011617           -1.039600
 C            3.141548           -3.555034            0.106912
 C            4.444552           -2.974387            0.432714
 C            4.978941           -1.913177           -0.263263
 C            6.261419           -1.369608            0.072519
 C            6.807635           -0.284005           -0.630315
 C            8.066479            0.238064           -0.294124
 C            8.635691            1.345670           -1.003106
 C            9.871157            1.851124           -0.665219
 C           10.464395            2.975211           -1.376358
 C           11.678813            3.462393           -1.025463
 C           12.422868            2.874634            0.070206
 C           11.920800            1.824320            0.762917
 C           10.620600            1.258243            0.430968
 C           10.093556            0.191525            1.123406
 C            8.810095           -0.350584            0.788802
 C            8.264097           -1.435605            1.491530
 C            7.003695           -1.955070            1.157070
 C            6.429338           -3.055581            1.870749
 C            5.190844           -3.557273            1.537048
 C            4.600392           -4.668459            2.269331
 C            3.383128           -5.157850            1.932616
 C            2.639908           -4.592844            0.828593
 C            2.506769           -3.569209           -2.275298
 C            1.733821           -3.085695           -3.392902
 C            0.848301           -2.069816           -3.233647
 C            0.668952           -1.432330           -1.941373
 C           -0.230765           -0.391195           -1.769027
 C           -0.389480            0.240703           -0.506792
 C           -1.303572            1.312329           -0.319076
 C           -1.447339            1.926512            0.915362
 C           -4.459875            2.977587           -0.307314
 C           -4.976302            1.914674            0.399624
 C           -6.261111            1.363317            0.087067
 C           -6.788521            0.275366            0.800723
 C           -8.050966           -0.252752            0.489215
 C           -8.601138           -1.362688            1.209657
 C           -9.841690           -1.872202            0.898108
 C          -10.416103           -2.998085            1.621812
 C          -11.637306           -3.487339            1.298844
 H          -13.381310           -3.334684            0.000616
 H          -12.489035           -1.400820           -1.298787
 H          -10.675274            0.236607           -1.699184
 H           -8.868907            1.858361           -2.105621
 H           -7.054506            3.470418           -2.525993
 H           -5.241735            5.072236           -2.968734
 H           -2.991942            5.986550           -2.388272
 H           -1.697938            5.044952           -0.519471
 H           -3.185924            4.426689            2.545381
 H           -1.854413            3.612955            4.449476
 H           -0.225632            1.744233            4.156278
 H            0.844535            0.074281            2.701585
 H            1.897716           -1.624375            1.269906
 H            4.429784           -1.459648           -1.091693
 H            6.242672            0.161069           -1.449730
 H            8.062643            1.781473           -1.821183
 H            9.894647            3.405819           -2.198634
 H           12.130859            4.302288           -1.550719
 H           13.392457            3.306669            0.312347
 H           12.469295            1.371198            1.587705
 H           10.644910           -0.264228            1.945179
 H            8.826407           -1.881665            2.311316
 H            6.999771           -3.489225            2.691743
 H            5.174532           -5.086583            3.095243
 H            2.930176           -5.987544            2.474249
 H            1.668401           -5.027352            0.593188
 H            3.194883           -4.396733           -2.448706
 H            1.881828           -3.567203           -4.358779
 H            0.248881           -1.702454           -4.065775
 H           -0.833624           -0.042210           -2.607734
 H           -1.897349            1.647866           -1.172100
 H           -4.410585            1.465945            1.219548
 H           -6.205750           -0.166448            1.609431
 H           -8.009275           -1.796735            2.015241
 H           -9.826669           -3.428198            2.430419
 H          -12.075617           -4.328320            1.833880

