98

 C            0.925758            6.490103           -0.712601
 C            1.399828            6.196472           -2.029646
 C            1.713887            4.912356           -2.384389
 C            1.575171            3.840902           -1.438300
 C            1.877103            2.498073           -1.784868
 C            1.743615            1.467572           -0.867233
 C            1.296560            1.774345            0.465275
 C            0.992734            3.080498            0.815733
 C            1.118105            4.135599           -0.124456
 C            0.788163            5.491786            0.213452
 C            1.140971            0.695620            1.431788
 C            1.352786           -0.597256            1.098356
 C            1.199038           -1.687983            2.097357
 C            2.328228           -2.010894            2.857705
 C            3.556949           -1.235863            2.796035
 C            4.634983           -1.557978            3.555618
 C            4.596908           -2.694281            4.445636
 C            3.481775           -3.463298            4.527477
 C            2.307456           -3.160225            3.728375
 C            1.183788           -3.966897            3.758441
 C            0.026625           -3.642478            3.002996
 C           -1.088113           -4.521338            3.031519
 C           -2.248159           -4.229568            2.336210
 C           -3.378763           -5.141169            2.325667
 C           -4.527874           -4.817675            1.680253
 C           -4.646790           -3.553849            0.992268
 C           -3.612218           -2.675189            0.972867
 C           -2.351373           -2.975406            1.632099
 C           -1.267937           -2.090713            1.617169
 C           -1.521238           -0.731921            1.067612
 C           -1.881290            0.250997            1.926446
 C           -2.186989            1.597884            1.467332
 C           -2.519969            2.590578            2.375661
 C           -2.798922            3.911885            1.941460
 C           -3.149923            4.953799            2.865382
 C           -3.409782            6.220216            2.415881
 C           -3.332536            6.524540            1.020604
 C           -3.001106            5.552434            0.115805
 C           -2.727655            4.212362            0.553410
 C           -2.390933            3.184113           -0.365807
 C           -2.128139            1.891211            0.059607
 C           -1.782344            0.815125           -0.882767
 C           -1.750090            1.037311           -2.251248
 C           -1.406506            0.005621           -3.163034
 C           -1.368602            0.230874           -4.581137
 C           -1.019885           -0.781042           -5.434445
 C           -0.684385           -2.075763           -4.927564
 C           -0.716715           -2.322797           -3.581836
 C           -1.086795           -1.285164           -2.660804
 C           -1.133396           -1.512886           -1.261018
 C           -1.469682           -0.497955           -0.379716
 C           -0.015003           -2.438988            2.217206
 C            1.831908           -0.968492           -0.241809
 C            2.106575           -2.286253           -0.572219
 C            2.591369           -2.638924           -1.858514
 C            2.888511           -3.999939           -2.207519
 C            3.363944           -4.308745           -3.453383
 C            3.568616           -3.280753           -4.426572
 C            3.290850           -1.974750           -4.125133
 C            2.794008           -1.617537           -2.825634
 C            2.504750           -0.272213           -2.479381
 C            2.035810            0.069469           -1.219795
 H            0.678517            7.521042           -0.466493
 H            1.503686            7.015369           -2.739064
 H            2.075282            4.677628           -3.383931
 H            2.213245            2.287474           -2.801969
 H            0.634314            3.311053            1.819530
 H            0.420982            5.701017            1.217845
 H            0.817710            0.972290            2.437564
 H            3.588365           -0.379986            2.117925
 H            5.552022           -0.972272            3.513696
 H            5.484573           -2.909194            5.038812
 H            3.431880           -4.325749            5.190271
 H            1.173443           -4.869760            4.368871
 H           -1.015058           -5.438909            3.615002
 H           -3.267704           -6.088328            2.850755
 H           -5.382602           -5.491951            1.661996
 H           -5.587901           -3.330791            0.492131
 H           -3.702632           -1.720484            0.449628
 H           -1.947633            0.063605            2.999730
 H           -2.573179            2.364840            3.440093
 H           -3.207527            4.709508            3.924782
 H           -3.681110            7.016386            3.107171
 H           -3.544787            7.542076            0.697991
 H           -2.936585            5.772556           -0.948895
 H           -2.334271            3.435584           -1.427328
 H           -1.985447            2.025330           -2.651644
 H           -1.622661            1.220361           -4.956544
 H           -0.989688           -0.621771           -6.510921
 H           -0.400597           -2.854051           -5.633426
 H           -0.454245           -3.301702           -3.181505
 H           -0.886714           -2.508747           -0.885152
 H            1.959215           -3.082051            0.161126
 H            2.730522           -4.773639           -1.457563
 H            3.595959           -5.336610           -3.726872
 H            3.950008           -3.561735           -5.406684
 H            3.439572           -1.184556           -4.859230
 H            2.657484            0.500806           -3.235470

