90

 C            7.048662            2.417731           -2.205425
 C            6.879104            3.186298           -1.038402
 C            5.824840            2.923386           -0.166571
 C            4.905333            1.865768           -0.456261
 C            5.088618            1.103329           -1.635635
 C            6.169226            1.390951           -2.503953
 C            4.148399            0.049739           -1.913991
 C            3.111292           -0.209616           -1.072108
 C            2.891215            0.531575            0.148785
 C            3.802755            1.571134            0.432227
 C            3.655595            2.375520            1.621637
 C            2.614351            2.125036            2.480384
 C            1.675332            1.081661            2.216895
 C            0.614545            0.893930            3.158582
 C           -0.319752           -0.089008            2.967356
 C           -0.217417           -0.927249            1.830084
 C            0.792720           -0.764426            0.897520
 C            0.786574           -1.797764           -0.174199
 C            1.539873           -2.952580            0.077067
 C            2.380042           -3.094377            1.255590
 C            3.097179           -4.224728            1.482324
 C            3.047984           -5.328079            0.552831
 C            2.283962           -5.247232           -0.565667
 C            1.503610           -4.055778           -0.849234
 C            0.722726           -3.959216           -1.986581
 C           -0.035888           -2.791794           -2.261279
 C           -0.810119           -2.748277           -3.449742
 C           -1.577904           -1.642067           -3.765223
 C           -2.374792           -1.594808           -4.978299
 C           -3.126406           -0.504440           -5.274423
 C           -3.144513            0.631246           -4.383348
 C           -2.410086            0.628641           -3.241481
 C           -1.583018           -0.509678           -2.873963
 C           -0.812742           -0.532106           -1.703426
 C           -0.784961            0.728399           -0.911419
 C           -1.765512            1.113525            0.072472
 C           -1.614992            2.413568            0.637488
 C           -0.541840            3.276080            0.248166
 C            0.371690            2.870850           -0.688347
 C            0.236515            1.588913           -1.275622
 C           -2.534515            2.903907            1.614202
 C           -3.589452            2.137102            2.042906
 C           -4.530266            2.639936            3.040294
 C           -5.566522            1.893753            3.473214
 C           -5.790505            0.548708            2.956903
 C           -4.886276            0.026834            1.977834
 C           -5.100439           -1.279849            1.475815
 C           -6.197789           -2.045317            1.938926
 C           -7.063188           -1.521431            2.884313
 C           -6.861757           -0.225937            3.396380
 C           -4.174403           -1.790684            0.499404
 C           -3.123870           -1.042432            0.065970
 C           -2.874711            0.301366            0.535532
 C           -3.769052            0.811662            1.500625
 C           -0.020231           -1.675641           -1.353907
 C            1.793421            0.260986            1.057486
 C            4.613475            3.444798            1.890019
 C            5.634034            3.706377            1.048707
 H            7.880853            2.639522           -2.872546
 H            7.582300            3.989015           -0.823227
 H            6.300442            0.796709           -3.406672
 H            4.289491           -0.536992           -2.821977
 H            2.425148           -1.010732           -1.344268
 H            2.483731            2.722385            3.382894
 H            0.563802            1.551296            4.025623
 H           -1.141714           -0.238627            3.666699
 H           -0.966483           -1.711440            1.696096
 H            2.423638           -2.258455            1.957575
 H            3.727031           -4.328011            2.364581
 H            3.639667           -6.214122            0.777756
 H            2.232116           -6.066161           -1.281148
 H            0.677774           -4.789339           -2.691537
 H           -0.788349           -3.608186           -4.119182
 H           -2.345953           -2.462801           -5.634766
 H           -3.730686           -0.455543           -6.178869
 H           -3.765132            1.483613           -4.655340
 H           -2.429689            1.487155           -2.566145
 H           -0.465301            4.257430            0.714619
 H            1.201892            3.509266           -0.988991
 H            0.969150            1.283871           -2.026841
 H           -2.378528            3.905935            2.014070
 H           -4.357372            3.647715            3.418346
 H           -6.268496            2.268158            4.218053
 H           -6.353345           -3.047592            1.543558
 H           -7.908909           -2.108783            3.239967
 H           -7.553912            0.165812            4.139727
 H           -4.337704           -2.797896            0.115362
 H           -2.449050           -1.489469           -0.663149
 H            4.465916            4.022257            2.802870
 H            6.347918            4.505616            1.247332

