62

 C           -1.408858            4.898725            1.890077
 C           -1.626116            4.294767            0.676722
 C           -1.546348            2.871936            0.551383
 C           -1.777921            2.213700           -0.699368
 C           -1.692202            0.849676           -0.796785
 C           -1.360507            0.063540            0.353744
 C           -1.361028           -1.417038            0.231357
 C           -2.582526           -2.052380            0.484619
 C           -3.786929           -1.315808            0.836162
 C           -4.961091           -1.951684            1.080762
 C           -5.051119           -3.390433            1.000589
 C           -3.959126           -4.127171            0.675207
 C           -2.683552           -3.487773            0.402249
 C           -1.563489           -4.225797            0.066178
 C           -0.320007           -3.594652           -0.199231
 C            0.793513           -4.405539           -0.541850
 C            2.030521           -3.847639           -0.808124
 C            3.174462           -4.671635           -1.158233
 C            4.383452           -4.111048           -1.414140
 C            4.551620           -2.678875           -1.342296
 C            3.507119           -1.873445           -1.021052
 C            2.187830           -2.416729           -0.736863
 C            1.097095           -1.604567           -0.404251
 C            1.361506           -0.143223           -0.363414
 C            1.821339            0.437846            0.862548
 C            2.146371            1.767763            0.916631
 C            2.037993            2.593207           -0.248868
 C            2.364002            3.985693           -0.214868
 C            2.256378            4.752407           -1.348420
 C            1.819642            4.169763           -2.573718
 C            1.497279            2.837006           -2.633932
 C            1.596872            2.014514           -1.466930
 C            1.264500            0.623540           -1.502047
 C           -0.190909           -2.163626           -0.121934
 C           -1.146930            0.669746            1.570751
 C           -1.232075            2.092292            1.694457
 C           -1.012631            2.748498            2.947350
 C           -1.100716            4.115004            3.040178
 H           -1.468301            5.980456            1.994911
 H           -1.858040            4.884639           -0.208792
 H           -2.018916            2.821566           -1.570608
 H           -1.868804            0.338506           -1.742055
 H           -3.721800           -0.227166            0.897919
 H           -5.861539           -1.398047            1.342452
 H           -6.013858           -3.854681            1.208240
 H           -4.002890           -5.213201            0.608806
 H           -1.622312           -5.312254            0.000463
 H            0.657168           -5.485846           -0.592247
 H            3.023698           -5.748999           -1.206611
 H            5.250086           -4.715100           -1.677825
 H            5.538493           -2.269850           -1.553459
 H            3.637110           -0.790157           -0.968078
 H            1.901341           -0.199866            1.741746
 H            2.487889            2.221904            1.846047
 H            2.693725            4.422026            0.726855
 H            2.501809            5.812684           -1.331574
 H            1.747569            4.802384           -3.456729
 H            1.162354            2.383309           -3.565168
 H            0.930923            0.185631           -2.441685
 H           -0.908870            0.077828            2.453378
 H           -0.777036            2.141634            3.819993
 H           -0.937316            4.622243            3.989480

