74

 C            5.713390            3.451048            1.306733
 C            5.725187            2.155834            1.931955
 C            4.801320            1.214835            1.589829
 C            3.793198            1.498112            0.594153
 C            2.833430            0.543397            0.226858
 C            1.854661            0.833834           -0.733495
 C            1.839312            2.127667           -1.351836
 C            2.804004            3.079478           -0.991460
 C            3.779849            2.788552           -0.026831
 C            4.778242            3.757537            0.364254
 C            0.822949            2.425823           -2.335544
 C           -0.111449            1.494732           -2.672172
 C           -0.097772            0.192525           -2.066544
 C            0.841802           -0.132216           -1.127450
 C            0.890536           -1.515323           -0.585308
 C            1.731835           -2.411090           -1.256286
 C            2.564343           -2.009050           -2.379467
 C            3.363924           -2.897528           -3.023071
 C            3.412862           -4.280146           -2.610456
 C            2.660436           -4.709325           -1.566134
 C            1.792411           -3.792246           -0.848555
 C            1.014244           -4.218335            0.211803
 C            0.167298           -3.318599            0.909704
 C           -0.607883           -3.816828            1.988678
 C           -1.452384           -2.989181            2.705458
 C           -2.249110           -3.494743            3.809423
 C           -3.069374           -2.670567            4.508783
 C           -3.164893           -1.272656            4.161248
 C           -2.434733           -0.760570            3.137613
 C           -1.535153           -1.593691            2.354935
 C           -0.763757           -1.085281            1.302581
 C           -0.859812            0.379521            1.069474
 C            0.018559            1.221690            1.693582
 C           -0.107707            2.645935            1.558648
 C           -1.115003            3.185692            0.818691
 C           -2.069053            2.336460            0.141918
 C           -3.104956            2.879038           -0.631946
 C           -4.018253            2.049462           -1.298918
 C           -5.086729            2.588114           -2.109309
 C           -5.957833            1.760223           -2.751461
 C           -5.830910            0.332254           -2.635742
 C           -4.838104           -0.214340           -1.879589
 C           -3.894057            0.627565           -1.180911
 C           -2.864134            0.085385           -0.398020
 C           -1.946308            0.912845            0.263648
 C            0.095946           -1.932586            0.531340
 H            6.470664            4.172614            1.608909
 H            6.489483            1.953116            2.680332
 H            4.797231            0.229539            2.054715
 H            2.848277           -0.441442            0.698228
 H            2.794105            4.059510           -1.466842
 H            4.759204            4.734190           -0.116653
 H            0.825625            3.414793           -2.790755
 H           -0.891166            1.708438           -3.402780
 H           -0.861783           -0.524214           -2.369393
 H            2.531949           -0.963098           -2.692396
 H            3.987840           -2.593779           -3.862160
 H            4.066411           -4.955077           -3.160376
 H            2.680891           -5.746664           -1.235741
 H            1.040261           -5.260974            0.527896
 H           -0.525412           -4.872653            2.245843
 H           -2.160907           -4.552656            4.051641
 H           -3.671679           -3.033250            5.339893
 H           -3.840215           -0.647792            4.743557
 H           -2.511703            0.296877            2.875235
 H            0.837834            0.832248            2.298858
 H            0.626545            3.272607            2.064305
 H           -1.223835            4.263743            0.712518
 H           -3.199951            3.960781           -0.718060
 H           -5.172519            3.670612           -2.188992
 H           -6.766798            2.154458           -3.364222
 H           -6.547391           -0.292267           -3.166572
 H           -4.728911           -1.293947           -1.782526
 H           -2.774324           -0.998870           -0.305264

