94

 C           10.650939            1.938190            3.223055
 C           10.649710            0.489034            3.180306
 C            9.583195           -0.188076            2.692858
 C            8.408714            0.515515            2.193554
 C            7.321737           -0.165551            1.697355
 C            6.180203            0.547475            1.201554
 N            5.114416           -0.140982            0.708869
 C            4.055442            0.575120            0.245649
 C            2.909591           -0.105869           -0.287978
 C            1.824482            0.599972           -0.751202
 C            1.828143            2.059128           -0.705410
 C            2.915670            2.739280           -0.209402
 C            4.060117            2.029654            0.281747
 N            5.124372            2.718564            0.774678
 C            6.186336            2.001710            1.234129
 C            7.331948            2.683927            1.762307
 C            8.412821            1.973288            2.229833
 C            9.587490            2.644567            2.771772
 C            0.658382            2.776555           -1.193962
 C           -0.409714            2.111681           -1.692637
 C           -0.414885            0.666490           -1.762789
 C            0.637549           -0.062467           -1.304996
 C            0.638471           -1.540853           -1.457023
 C            1.253580           -2.042685           -2.609933
 C            1.903647           -1.182824           -3.586968
 C            2.493122           -1.692233           -4.698671
 C            2.490216           -3.113814           -4.950940
 C            1.895490           -3.961580           -4.074454
 C            1.255944           -3.460499           -2.870401
 C            0.645038           -4.314289           -1.970391
 C            0.023882           -3.819979           -0.793638
 C           -0.589220           -4.744801            0.091475
 C           -1.212407           -4.321141            1.251076
 C           -1.849110           -5.262471            2.155542
 C           -2.458949           -4.834453            3.289489
 C           -2.478883           -3.428528            3.617393
 C           -1.891159           -2.516593            2.801355
 C           -1.227961           -2.915349            1.569486
 C           -0.618781           -1.993303            0.710138
 C           -0.638857           -0.574230            1.151173
 C            0.402840           -0.068399            1.863669
 C            0.373643            1.287146            2.368976
 C           -0.705893            2.078109            2.167283
 C           -1.863371            1.594486            1.427051
 C           -2.960894            2.399333            1.229404
 C           -4.091255            1.925106            0.486619
 N           -5.164557            2.737955            0.292794
 C           -6.211053            2.246611           -0.425433
 C           -7.365208            3.066169           -0.655668
 C           -8.429779            2.584143           -1.380938
 C           -9.612886            3.398542           -1.628036
 C          -10.659472            2.914572           -2.337900
 C          -10.631406            1.568036           -2.874443
 C           -9.556576            0.767731           -2.680101
 C           -8.399432            1.231616           -1.925229
 C           -7.304543            0.424118           -1.723374
 C           -6.179772            0.898070           -0.969849
 N           -5.105954            0.084870           -0.774572
 C           -4.062388            0.574333           -0.053151
 C           -2.908225           -0.246607            0.181924
 C           -1.836019            0.235436            0.894981
 C            0.014589           -2.410508           -0.504935
 H           11.533393            2.431353            3.629640
 H           11.532941           -0.028514            3.552896
 H            9.567201           -1.277459            2.655499
 H            7.291207           -1.257272            1.662545
 H            2.937795           -1.200667           -0.312972
 H            2.943834            3.830807           -0.174228
 H            7.310376            3.776147            1.776069
 H            9.573369            3.734209            2.798368
 H            0.677900            3.864734           -1.137137
 H           -1.294337            2.637138           -2.054151
 H           -1.295679            0.182669           -2.189400
 H            1.909239           -0.107038           -3.401809
 H            2.982845           -1.046693           -5.426666
 H            2.976111           -3.474536           -5.856268
 H            1.879091           -5.037157           -4.244167
 H            0.633421           -5.388688           -2.156925
 H           -0.563001           -5.805852           -0.159029
 H           -1.819231           -6.317808            1.888547
 H           -2.944659           -5.527484            3.974746
 H           -2.980048           -3.126670            4.536215
 H           -1.909034           -1.455026            3.055183
 H            1.291893           -0.667614            2.069409
 H            1.249613            1.641076            2.913840
 H           -0.743657            3.099614            2.545316
 H           -3.007355            3.415723            1.627292
 H           -7.363206            4.074694           -0.235469
 H           -9.619118            4.408963           -1.219047
 H          -11.548228            3.515761           -2.527218
 H          -11.501823            1.229079           -3.434967
 H           -9.520504           -0.246535           -3.077978
 H           -7.254716           -0.591710           -2.122790
 H           -2.918943           -1.263494           -0.225216

