94

 C            7.531172            7.460331            1.115188
 C            6.423067            7.004134            0.484973
 C            6.029383            5.603670            0.573283
 C            4.902143            5.133966           -0.059706
 C            4.537905            3.750069            0.033793
 N            3.419251            3.300173           -0.598373
 C            3.120692            1.977978           -0.495317
 C            1.956830            1.454738           -1.153617
 C            1.660357            0.114326           -1.086446
 C            0.500069           -0.445948           -1.769174
 C            0.237350           -1.772598           -1.738404
 C            1.102052           -2.681631           -1.000273
 C            0.848549           -4.142652           -1.075787
 C            1.419782           -4.825407           -2.154307
 C            2.100417           -4.138734           -3.240781
 C            2.637739           -4.822817           -4.282839
 C            2.557324           -6.263475           -4.339409
 C            1.947176           -6.955187           -3.344105
 C            1.359981           -6.265617           -2.208479
 C            0.772357           -6.959798           -1.165766
 C            0.174121           -6.276930           -0.074214
 C           -0.385686           -7.027270            0.992971
 C           -1.009031           -6.401192            2.057982
 C           -1.558471           -7.159180            3.168521
 C           -2.204960           -6.535249            4.185476
 C           -2.361991           -5.099860            4.177785
 C           -1.861630           -4.353126            3.160467
 C           -1.145913           -4.965328            2.052406
 C           -0.613150           -4.216972            0.997768
 C           -0.946227           -2.770222            0.970783
 C           -0.129565           -1.839749            1.736422
 C           -0.463783           -0.530831            1.809934
 C           -1.655650           -0.013284            1.148207
 C           -2.024005            1.306249            1.258443
 C           -3.218905            1.785391            0.622358
 N           -3.587732            3.085676            0.767363
 C           -4.734823            3.492577            0.157165
 C           -5.172146            4.851400            0.294046
 C           -6.330297            5.276905           -0.314257
 C           -6.797573            6.650958           -0.182342
 C           -7.936749            7.063564           -0.787055
 C           -8.725448            6.146374           -1.586060
 C           -8.341866            4.857008           -1.740275
 C           -7.127215            4.352739           -1.112102
 C           -6.733360            3.043106           -1.259464
 C           -5.534156            2.568881           -0.632402
 N           -5.163432            1.267117           -0.778965
 C           -4.023126            0.858891           -0.160979
 C           -3.605062           -0.509121           -0.267560
 C           -2.466606           -0.943199            0.369688
 C           -2.052970           -2.336534            0.311244
 C            0.135403           -4.840256           -0.050080
 C            2.181737           -2.209526           -0.322291
 C            2.517910           -0.794360           -0.333141
 C            3.627201           -0.318873            0.325699
 C            3.969385            1.072829            0.265842
 N            5.080383            1.523844            0.907169
 C            5.379733            2.847919            0.804089
 C            6.544400            3.368337            1.459067
 C            6.867072            4.701372            1.354450
 C            8.044729            5.252739            2.012660
 C            8.359249            6.565009            1.899208
 H            7.834283            8.505107            1.053828
 H            5.790919            7.664562           -0.108916
 H            4.256263            5.789600           -0.648617
 H            1.329322            2.157848           -1.707401
 H           -0.146425            0.248779           -2.307708
 H           -0.623132           -2.203418           -2.251102
 H            2.164606           -3.049723           -3.198869
 H            3.142270           -4.307964           -5.099807
 H            2.999759           -6.766415           -5.198025
 H            1.878350           -8.041959           -3.364867
 H            0.760980           -8.050123           -1.170083
 H           -0.316094           -8.114957            0.960472
 H           -1.431860           -8.240852            3.152557
 H           -2.620538           -7.090121            5.025326
 H           -2.893509           -4.640538            5.010556
 H           -1.983445           -3.268266            3.155601
 H            0.754628           -2.239353            2.233840
 H            0.146141            0.180638            2.368934
 H           -1.432253            2.025151            1.831135
 H           -4.556149            5.524464            0.895257
 H           -6.194339            7.328390            0.422400
 H           -8.294642            8.088347           -0.693171
 H           -9.631039            6.532961           -2.052678
 H           -8.925248            4.155089           -2.336383
 H           -7.313808            2.329427           -1.848742
 H           -4.228164           -1.184161           -0.858710
 H           -2.673984           -3.023127           -0.265510
 H            2.838303           -2.879677            0.234159
 H            4.283455           -0.977332            0.899539
 H            7.156994            2.670317            2.034518
 H            8.658295            4.566909            2.597081
 H            9.236568            6.986853            2.388706

