96

 C           -0.791893            1.732697           -1.522720
 C           -0.429771            2.464488           -0.435223
 C           -0.759642            2.032210            0.914616
 C           -0.384931            2.953633            2.017824
 C           -1.306783            3.962415            2.320324
 C           -2.596572            4.065930            1.655691
 C           -3.476521            5.052036            1.966021
 C           -3.154274            6.038654            2.969693
 C           -1.962970            5.991912            3.617716
 C           -0.990988            4.955536            3.316050
 C            0.236965            4.910759            3.951165
 C            1.177117            3.887515            3.661605
 C            2.427523            3.897826            4.333717
 C            3.373990            2.916526            4.101281
 C            4.659487            2.927443            4.777620
 C            5.570708            1.946714            4.556134
 C            5.275567            0.872003            3.638324
 C            4.086045            0.824559            2.985899
 C            3.072760            1.850340            3.179396
 C            1.841565            1.824900            2.515100
 C            1.585345            0.647044            1.648393
 C            1.956461            0.630428            0.334465
 C            1.719052           -0.556174           -0.432508
 C            1.910842           -0.878793           -1.767664
 C            2.435584           -0.185498           -2.930028
 C            1.985476           -0.524164           -4.219120
 C            2.475658            0.162760           -5.330667
 C            3.412110            1.189288           -5.167290
 C            3.866664            1.523211           -3.887361
 C            3.386298            0.838500           -2.769304
 O            1.449638           -2.181879           -2.006210
 C            0.959814           -2.682340           -0.789006
 C            0.413281           -4.025063           -0.854686
 C            0.192675           -4.757169            0.326028
 C           -0.351594           -6.041314            0.259228
 C           -0.673348           -6.607062           -0.978315
 C           -0.448301           -5.885294           -2.155804
 C            0.090246           -4.599550           -2.098830
 C            1.109180           -1.720078            0.199423
 C            0.766490           -1.666990            1.591752
 C            0.996316           -0.520478            2.286411
 C            0.868719            2.859147            2.704432
 C           -1.454720            0.879472            1.143032
 C           -1.829842            0.067974            0.022873
 C           -2.456813           -1.163433           -0.091745
 C           -2.983226           -2.146025            0.839008
 C           -3.551132           -1.731438            2.056601
 C           -4.033440           -2.683251            2.957420
 C           -3.955762           -4.046235            2.652568
 C           -3.397357           -4.459883            1.438637
 C           -2.912254           -3.516665            0.531409
 O           -2.546089           -1.521220           -1.444600
 C           -1.956973           -0.487948           -2.191478
 C           -1.969005           -0.692727           -3.628307
 C           -1.697715            0.378984           -4.497915
 C           -1.719745            0.178891           -5.879661
 C           -2.010149           -1.084178           -6.404636
 C           -2.280677           -2.153068           -5.543129
 C           -2.259634           -1.963209           -4.161130
 C           -1.500747            0.500090           -1.330715
 H           -0.551935            2.042247           -2.539642
 H            0.120007            3.399601           -0.538723
 H           -2.841580            3.322076            0.894126
 H           -4.443172            5.126139            1.470293
 H           -3.891543            6.810893            3.183161
 H           -1.698700            6.724420            4.378786
 H            0.500291            5.669006            4.688385
 H            2.632375            4.698790            5.043882
 H            4.860183            3.747816            5.464826
 H            6.536997            1.940173            5.057907
 H            6.035188            0.106239            3.488926
 H            3.863345            0.008450            2.294844
 H            2.401937            1.494919           -0.153568
 H            1.250201           -1.321311           -4.340084
 H            2.125145           -0.101381           -6.327153
 H            3.787631            1.727079           -6.035783
 H            4.599719            2.318847           -3.760997
 H            3.752083            1.092553           -1.774693
 H            0.444547           -4.320673            1.293523
 H           -0.523703           -6.603589            1.176069
 H           -1.095780           -7.608768           -1.026676
 H           -0.692365           -6.329156           -3.119887
 H            0.265849           -4.031344           -3.013735
 H            0.319025           -2.547414            2.052145
 H            0.743324           -0.436822            3.342873
 H           -1.710356            0.545647            2.146423
 H           -3.621089           -0.670133            2.292224
 H           -4.474703           -2.361632            3.899743
 H           -4.330880           -4.784329            3.358961
 H           -3.337007           -5.520422            1.198352
 H           -2.468342           -3.835662           -0.414156
 H           -1.473734            1.366544           -4.092679
 H           -1.514815            1.012339           -6.550357
 H           -2.029026           -1.235414           -7.482144
 H           -2.512508           -3.135344           -5.952244
 H           -2.472066           -2.792944           -3.485033

