96

 C            4.267929            4.529241           -0.464615
 C            3.059125            4.771730            0.113620
 C            2.246273            3.660997            0.517561
 C            1.010600            3.553456            1.140188
 C            0.011205            4.486964            1.627463
 C           -0.951659            4.072950            2.566770
 C           -1.900719            4.979777            3.040323
 C           -1.899517            6.302228            2.583737
 C           -0.949091            6.715077            1.644318
 C            0.001894            5.814043            1.161393
 O            0.697415            2.197326            1.324512
 C            1.752955            1.447656            0.786734
 C            1.583420            0.007606            0.861654
 C            2.117557           -0.814185           -0.146956
 C            1.955411           -2.197581           -0.078759
 C            1.249612           -2.772883            0.990320
 C            1.155760           -4.250225            1.107304
 C            2.225134           -4.880930            1.754161
 C            3.361830           -4.143835            2.285009
 C            4.390796           -4.777017            2.903974
 C            4.388907           -6.212705            3.056777
 C            3.351472           -6.948958            2.585019
 C            2.228813           -6.312763            1.918207
 C            1.162540           -7.050755            1.437976
 C            0.069019           -6.424059            0.785262
 C           -1.000139           -7.233622            0.320337
 C           -2.088706           -6.679930           -0.328276
 C           -3.187501           -7.502832           -0.802742
 C           -4.247030           -6.947285           -1.442876
 C           -4.296520           -5.521644           -1.665824
 C           -3.291316           -4.716922           -1.235790
 C           -2.133494           -5.254690           -0.537876
 C           -1.089257           -4.443640           -0.078491
 C           -1.232048           -2.988908           -0.339329
 C           -1.960365           -2.185755            0.553512
 C           -2.155096           -0.832778            0.278003
 C           -1.629472           -0.272658           -0.900140
 C           -1.819384            1.141084           -1.173083
 C           -2.834160            2.059891           -0.955016
 C           -4.156006            1.961133           -0.406523
 C           -4.928563            3.081047           -0.348127
 C           -4.446081            4.358952           -0.827404
 C           -3.199697            4.497010           -1.358327
 C           -2.348768            3.345256           -1.444306
 C           -1.068119            3.132176           -1.935051
 C           -0.035927            3.957676           -2.535864
 C            1.022446            3.365686           -3.250585
 C            2.008253            4.165736           -3.829773
 C            1.949258            5.557718           -3.701815
 C            0.902183            6.148945           -2.987703
 C           -0.087283            5.356871           -2.402098
 O           -0.732417            1.776340           -1.788614
 C           -0.912508           -1.081006           -1.799522
 C           -0.720701           -2.434446           -1.523186
 C            0.044582           -4.997462            0.599210
 C            0.719855           -1.954215            2.000357
 C            0.880974           -0.570823            1.933980
 C            2.726537            2.302545            0.292367
 C            4.008585            2.095527           -0.316980
 C            4.746861            3.180601           -0.680809
 H            4.914000            5.346583           -0.779902
 H            2.684618            5.779499            0.282951
 H           -0.952041            3.039933            2.915751
 H           -2.644406            4.655526            3.766794
 H           -2.639533            7.007086            2.957614
 H           -0.950046            7.743432            1.287360
 H            0.733980            6.134065            0.419039
 H            2.646050           -0.367545           -0.988985
 H            2.369400           -2.836039           -0.858602
 H            3.366213           -3.057437            2.173734
 H            5.240285           -4.223063            3.301077
 H            5.237680           -6.675198            3.557940
 H            3.326691           -8.032531            2.690074
 H            1.149363           -8.134358            1.556254
 H           -0.949970           -8.310181            0.484325
 H           -3.126989           -8.575507           -0.625136
 H           -5.078693           -7.550648           -1.802904
 H           -5.162013           -5.117109           -2.188549
 H           -3.331334           -3.639388           -1.408531
 H           -2.365014           -2.622268            1.466155
 H           -2.700417           -0.204346            0.982102
 H           -4.506715            0.991360           -0.061764
 H           -5.937006            3.048000            0.060576
 H           -5.121625            5.209121           -0.750283
 H           -2.822326            5.450747           -1.722843
 H            1.066513            2.279896           -3.340921
 H            2.826501            3.705137           -4.381415
 H            2.718288            6.179517           -4.155669
 H            0.858173            7.231921           -2.888571
 H           -0.897150            5.819190           -1.836660
 H           -0.505147           -0.640557           -2.710028
 H           -0.168982           -3.063268           -2.221226
 H            0.179530           -2.403600            2.832954
 H            0.461900            0.071271            2.709457
 H            4.359651            1.076574           -0.461245
 H            5.724813            3.065447           -1.144713

