96

 C           11.098257            1.096511            1.224535
 C            9.993891            0.316446            1.139679
 C            8.743292            0.840153            0.608349
 C            7.609175            0.064124            0.518294
 C            6.386391            0.593266           -0.007903
 C            5.225022           -0.192625           -0.099833
 C            4.032746            0.340206           -0.606243
 C            2.820929           -0.419116           -0.709554
 C            1.672726            0.160962           -1.194750
 C            0.392836           -0.535868           -1.311953
 C            0.328744           -1.979861           -0.965289
 C            0.655476           -2.876029           -1.989409
 C            1.060348           -2.433951           -3.314986
 C            1.365089           -3.322101           -4.295412
 C            1.294549           -4.743808           -4.052419
 C            0.925257           -5.211642           -2.833679
 C            0.596487           -4.297186           -1.754312
 C            0.225847           -4.761245           -0.505766
 C           -0.097602           -3.863621            0.544985
 C           -0.460260           -4.400400            1.807576
 C           -0.791014           -3.575800            2.867189
 C           -1.156872           -4.119948            4.162966
 C           -1.484664           -3.300373            5.193361
 C           -1.473643           -1.867468            5.015314
 C           -1.133283           -1.318689            3.821093
 C           -0.769839           -2.146443            2.681409
 C           -0.407894           -1.603590            1.442987
 C           -0.395950           -0.119709            1.356483
 C           -1.641975            0.577312            1.041097
 C           -2.823299           -0.059249            0.742575
 C           -4.001212            0.698277            0.434351
 C           -5.226141            0.103050            0.108003
 C           -6.354163            0.886726           -0.190165
 C           -7.610485            0.290795           -0.533805
 C           -8.712342            1.064108           -0.825062
 C           -9.996621            0.473279           -1.174158
 C          -11.068617            1.250449           -1.461031
 C          -10.965023            2.695451           -1.428127
 C           -9.795005            3.298059           -1.106678
 C           -8.609601            2.514168           -0.787607
 C           -7.412013            3.107960           -0.457841
 C           -6.253038            2.322911           -0.152409
 C           -5.029238            2.925608            0.176088
 C           -3.902370            2.138284            0.462979
 N           -2.701183            2.778682            0.767685
 C           -1.625192            2.043418            1.039863
 C           -0.374350            2.733088            1.349333
 C            0.742530            2.028033            1.638265
 C            0.731331            0.579919            1.655319
 C           -0.058080           -2.440912            0.334741
 C           -0.699019            0.102182           -1.812227
 C           -0.636864            1.491841           -2.215149
 C            0.514494            2.195273           -2.126658
 C            1.728509            1.565350           -1.611827
 N            2.838356            2.297395           -1.539887
 C            4.004205            1.716344           -1.041446
 C            5.165359            2.502470           -0.961960
 C            6.354881            1.964049           -0.448821
 C            7.546783            2.752887           -0.347000
 C            8.710509            2.224730            0.164783
 C            9.928314            3.015348            0.281415
 C           11.064234            2.477567            0.787030
 H           12.038159            0.714104            1.619711
 H           10.004657           -0.723517            1.463704
 H            7.621066           -0.974501            0.848931
 H            5.252009           -1.231894            0.229547
 H            2.831056           -1.464590           -0.391614
 H            1.113649           -1.359523           -3.503950
 H            1.668889           -2.988312           -5.287006
 H            1.544070           -5.416988           -4.871286
 H            0.860316           -6.279302           -2.628016
 H            0.176895           -5.833354           -0.312140
 H           -0.473282           -5.483778            1.931816
 H           -1.153751           -5.203443            4.274494
 H           -1.761055           -3.693658            6.170549
 H           -1.745846           -1.244991            5.867006
 H           -1.125147           -0.234189            3.691571
 H           -2.887024           -1.150129            0.733473
 H           -5.305946           -0.984288            0.083950
 H           -7.674806           -0.797023           -0.560254
 H          -10.059570           -0.614030           -1.194281
 H          -12.033381            0.818396           -1.722304
 H          -11.856744            3.272430           -1.669291
 H           -9.701875            4.383147           -1.076754
 H           -7.320275            4.193873           -0.423375
 H           -4.937821            4.013237            0.212055
 H           -0.394416            3.824557            1.326551
 H            1.687392            2.526761            1.862175
 H            1.662526            0.071378            1.907263
 H           -1.655714           -0.410661           -1.916170
 H           -1.555261            1.949473           -2.587392
 H            0.589779            3.244206           -2.420387
 H            5.126933            3.538761           -1.304276
 H            7.507410            3.788472           -0.685817
 H            9.887506            4.051551           -0.052640
 H           11.979583            3.060576            0.879570

