96

 C            1.112970            6.825449           -0.878912
 C            1.081635            7.204935            0.521139
 C            1.126475            6.272436            1.500185
 C            1.209258            4.850957            1.166280
 N            1.243128            3.962568            2.157614
 C            1.318381            2.604633            1.844858
 C            1.340425            1.670786            2.891793
 C            1.409142            0.294923            2.620623
 C            1.458797           -0.660947            3.683966
 C            1.559142           -2.009573            3.427442
 C            1.649323           -2.980825            4.509423
 C            1.781333           -4.304211            4.252264
 C            1.824933           -4.786547            2.888118
 C            1.724290           -3.926216            1.845826
 C            1.587771           -2.491052            2.057340
 C            1.497295           -1.587027            1.008687
 C            1.569246           -2.086662           -0.390987
 C            2.847422           -2.160706           -0.958019
 C            4.030582           -1.648376           -0.284778
 C            5.260419           -1.729745           -0.853668
 C            5.434806           -2.338746           -2.151021
 C            4.366811           -2.843155           -2.818927
 C            3.033795           -2.781781           -2.245652
 C            1.943939           -3.334959           -2.892371
 C            0.640097           -3.251013           -2.337672
 C           -0.436241           -3.863214           -3.030775
 C           -1.732105           -3.783927           -2.553965
 C           -2.834564           -4.428946           -3.244951
 C           -4.108071           -4.301133           -2.794037
 C           -4.386934           -3.516261           -1.614931
 C           -3.383443           -2.904277           -0.935518
 C           -1.997687           -3.018317           -1.361742
 C           -0.945608           -2.403410           -0.671112
 C           -1.329007           -1.513861            0.457765
 C           -1.567456           -2.012529            1.726710
 C           -1.433976           -3.427253            2.048934
 C           -1.676429           -3.891297            3.298307
 C           -2.064894           -2.987834            4.361752
 C           -2.202787           -1.662188            4.121790
 C           -1.977218           -1.111037            2.791947
 C           -2.155416            0.227743            2.533270
 C           -1.971982            0.761251            1.216655
 C           -2.202028            2.119175            0.953580
 C           -2.050285            2.630867           -0.346390
 N           -2.296306            3.985231           -0.565832
 C           -2.146710            4.476724           -1.794216
 C           -2.400742            5.900073           -2.015749
 C           -2.268110            6.435888           -3.250743
 C           -1.872969            5.619689           -4.382927
 C           -1.621709            4.296589           -4.234467
 C           -1.742289            3.655130           -2.936560
 C           -1.504110            2.316279           -2.727467
 C           -1.647310            1.752854           -1.418578
 C           -1.409533            0.398617           -1.142818
 C           -1.559441           -0.119583            0.153829
 C            0.414263           -2.559450           -1.096157
 C            1.445952           -0.168806            1.258003
 C            1.440979            0.773597            0.214451
 C            1.374959            2.147420            0.476319
 C            1.340152            3.134610           -0.562732
 C            1.253607            4.469828           -0.247689
 C            1.194236            5.524187           -1.245951
 H            1.064849            7.623656           -1.617719
 H            1.017855            8.267948            0.753151
 H            1.099138            6.527417            2.560925
 H            1.302757            2.031300            3.921474
 H            1.421514           -0.291610            4.708664
 H            1.608601           -2.598464            5.528592
 H            1.857609           -5.037575            5.053170
 H            1.939348           -5.857858            2.732589
 H            1.750120           -4.284362            0.815036
 H            3.903057           -1.190024            0.698763
 H            6.144164           -1.340890           -0.349510
 H            6.440806           -2.380049           -2.566262
 H            4.474277           -3.308731           -3.797360
 H            2.075843           -3.850233           -3.843856
 H           -0.225157           -4.402537           -3.954248
 H           -2.600460           -5.014488           -4.132624
 H           -4.945467           -4.777731           -3.301619
 H           -5.423419           -3.431618           -1.291406
 H           -3.598612           -2.310599           -0.044067
 H           -1.126279           -4.098240            1.244936
 H           -1.578078           -4.948004            3.541665
 H           -2.235975           -3.411362            5.349979
 H           -2.488167           -0.965767            4.909301
 H           -2.446373            0.915174            3.328261
 H           -2.498937            2.798792            1.756476
 H           -2.695991            6.487693           -1.143940
 H           -2.456455            7.493661           -3.433881
 H           -1.790644            6.110300           -5.351898
 H           -1.328451            3.672577           -5.077919
 H           -1.207923            1.661840           -3.548112
 H           -1.105589           -0.262357           -1.957782
 H            1.479845            0.428469           -0.821378
 H            1.371943            2.800477           -1.600577
 H            1.209851            5.224915           -2.293784

