90

 C           12.225019           -0.055150           -0.086709
 C           11.620751           -0.377735           -1.316243
 C           10.239882           -0.543720           -1.400266
 C            9.437041           -0.384053           -0.228083
 C           10.055427           -0.060139            1.005899
 C           11.460304            0.101916            1.058228
 C            9.225535            0.096103            2.177136
 C            7.876493           -0.061958            2.105176
 C            7.219825           -0.391222            0.861315
 C            8.004548           -0.549813           -0.293178
 C            7.386796           -0.880128           -1.556517
 C            6.021391           -1.039085           -1.629070
 C            5.201601           -0.882326           -0.469369
 C            3.785092           -1.049934           -0.559485
 C            2.991126           -0.899807            0.554851
 C            1.521057           -1.073187            0.461682
 C            0.950093           -2.325875            0.674467
 C            1.741214           -3.495289            1.017488
 C            1.157830           -4.704874            1.213919
 C           -0.271427           -4.864085            1.077781
 C           -1.055093           -3.802582            0.759960
 C           -0.479921           -2.484538            0.551483
 C           -1.271771           -1.392272            0.236301
 C           -0.707470           -0.105587            0.026318
 C           -1.516886            1.027311           -0.296859
 C           -2.987229            0.856300           -0.390033
 C           -3.574181            0.511199           -1.645639
 C           -4.933079            0.355390           -1.750750
 C           -5.788903            0.533905           -0.618559
 C           -5.200576            0.872402            0.627938
 C           -3.782959            1.029304            0.719718
 C           -6.022485            1.057212            1.781989
 C           -7.389539            0.914719            1.706516
 C           -8.246937            1.102120            2.874026
 C           -9.587107            0.963723            2.798129
 C          -10.246633            0.619356            1.542947
 C           -9.441327            0.426741            0.377382
 C          -10.059211            0.091713           -0.853694
 C          -11.466410           -0.047691           -0.910154
 C          -12.233710            0.142196            0.228037
 C          -11.629719            0.475498            1.454907
 C           -9.226819           -0.098164           -2.018161
 C           -7.875841            0.040937           -1.942794
 C           -7.219604            0.382955           -0.702072
 C           -8.006752            0.572018            0.446182
 C           -0.945492            2.279892           -0.511070
 C           -1.735853            3.448650           -0.857808
 C           -1.151898            4.657901           -1.055451
 C            0.276955            4.817662           -0.916105
 C            1.059802            3.756391           -0.595215
 C            0.484209            2.438749           -0.386533
 C            1.275501            1.346338           -0.069969
 C            0.711118            0.059835            0.139285
 C            3.579289           -0.572031            1.814650
 C            4.937200           -0.406985            1.918454
 C            5.790730           -0.558073            0.780512
 C            8.241697           -1.036079           -2.730436
 C            9.580012           -0.878047           -2.657996
 H           13.306612            0.070022           -0.042936
 H           12.243665           -0.495947           -2.201331
 H           11.934264            0.351229            2.006164
 H            9.713191            0.344235            3.119687
 H            7.253799            0.056720            2.994397
 H            5.539135           -1.287422           -2.574056
 H            3.343219           -1.298111           -1.524711
 H            2.820821           -3.366992            1.111966
 H            1.746044           -5.582878            1.476771
 H           -0.691583           -5.856020            1.236014
 H           -2.134222           -3.905613            0.649703
 H           -2.353668           -1.513215            0.145474
 H           -2.922563            0.376048           -2.508474
 H           -5.383446            0.091159           -2.709839
 H           -3.341720            1.289356            1.682176
 H           -5.540546            1.314654            2.724771
 H           -7.754948            1.360021            3.812521
 H          -10.223338            1.104874            3.672162
 H          -11.939976           -0.305181           -1.856017
 H          -13.317091            0.035172            0.180998
 H          -12.254869            0.619716            2.334549
 H           -9.714031           -0.355660           -2.958340
 H           -7.251356           -0.102907           -2.827026
 H           -2.815247            3.320426           -0.954623
 H           -1.739749            5.535068           -1.321793
 H            0.697529            5.809353           -1.074740
 H            2.138731            3.859516           -0.482723
 H            2.357293            1.467647            0.022242
 H            2.928988           -0.456558            2.681328
 H            5.388474           -0.155313            2.880540
 H            7.749676           -1.286471           -3.670822
 H           10.214104           -0.995130           -3.537087

