90

 C           -7.672477           -4.307287            0.376588
 C           -6.271989           -4.424220            0.604154
 C           -5.479967           -3.303185            0.642467
 C           -6.039624           -2.000458            0.455651
 C           -7.436255           -1.887376            0.230616
 C           -8.240505           -3.071149            0.194757
 C           -8.028309           -0.600813            0.042498
 C           -7.261723            0.542655            0.075459
 C           -7.850352            1.865601           -0.113097
 C           -7.097779            2.985046           -0.079668
 C           -5.657657            2.928608            0.146378
 C           -5.041013            1.651982            0.334572
 C           -3.641974            1.576702            0.554367
 C           -2.880421            2.769099            0.585161
 C           -3.492377            3.998683            0.402080
 C           -4.879050            4.083767            0.182142
 C           -3.043189            0.268052            0.742491
 C           -1.580390            0.164478            0.976546
 C           -1.077674            0.194066            2.275711
 C           -1.933418            0.347208            3.439856
 C           -1.414397            0.366951            4.693958
 C            0.008207            0.232029            4.905611
 C            0.850272            0.090793            3.850647
 C            0.345181            0.071439            2.488667
 C            1.198645           -0.061573            1.405309
 C            0.705268           -0.082482            0.073907
 C            1.579767           -0.213215           -1.049626
 C            3.044683           -0.291862           -0.819161
 C            3.793537            0.849766           -0.819253
 C            5.219468            0.822262           -0.610187
 C            5.845794           -0.416790           -0.398433
 C            7.272878           -0.482926           -0.184757
 C            8.021639            0.672784           -0.190042
 C            7.407576            1.944665           -0.405658
 C            8.193605            3.141238           -0.412033
 C            7.604225            4.363070           -0.620706
 C            6.199382            4.452369           -0.833512
 C            5.424671            3.318775           -0.831375
 C            6.006886            2.030226           -0.616925
 C            7.884059           -1.791301            0.031703
 C            7.149220           -2.922977            0.032989
 C            5.706540           -2.894997           -0.181722
 C            5.067690           -1.633319           -0.394872
 C            3.665814           -1.585683           -0.604478
 C            2.923596           -2.790454           -0.600872
 C            3.556904           -4.005428           -0.394216
 C            4.946543           -4.062980           -0.183822
 C            1.076153           -0.253147           -2.348154
 C            1.931352           -0.410094           -3.512242
 C            1.411287           -0.441162           -4.765592
 C           -0.012116           -0.314087           -4.976653
 C           -0.853842           -0.168613           -3.922035
 C           -0.347326           -0.137414           -2.560688
 C           -1.200272            0.002138           -1.477833
 C           -0.706252            0.028406           -0.146645
 C           -3.809989           -0.860895            0.710014
 C           -5.233385           -0.805339            0.488684
 C           -5.838165            0.448295            0.301590
 H           -8.278500           -5.211638            0.350019
 H           -5.843673           -5.415018            0.746388
 H           -4.405659           -3.390183            0.817454
 H           -9.310577           -2.969135            0.020395
 H           -9.102894           -0.544295           -0.127705
 H           -8.926628            1.909264           -0.281998
 H           -7.540348            3.971490           -0.220040
 H           -1.803732            2.710679            0.755151
 H           -2.899596            4.912726            0.427624
 H           -5.338299            5.060967            0.040519
 H           -3.007195            0.448954            3.270946
 H           -2.051216            0.485005            5.569558
 H            0.375779            0.247780            5.930505
 H            1.925985           -0.013046            3.990574
 H            2.274891           -0.155023            1.569860
 H            3.317190            1.820215           -0.982789
 H            9.098703            0.637378           -0.030058
 H            9.267141            3.060423           -0.248229
 H            8.196415            5.276967           -0.626852
 H            5.753739            5.432132           -0.997227
 H            4.347006            3.384472           -0.994769
 H            8.962287           -1.813754            0.192139
 H            7.608592           -3.898536            0.193989
 H            1.844787           -2.753197           -0.763091
 H            2.979064           -4.929263           -0.393540
 H            5.422583           -5.029207           -0.023391
 H            3.005740           -0.506210           -3.343751
 H            2.047469           -0.562858           -5.641147
 H           -0.380583           -0.339158           -6.001022
 H           -1.930119           -0.070480           -4.061506
 H           -2.276476            0.095498           -1.642471
 H           -3.350832           -1.842578            0.854451

