74

 C           -5.535424            3.522096           -2.740259
 C           -6.126488            2.766820           -1.773076
 C           -5.389550            1.720324           -1.101352
 C           -5.977476            0.929373           -0.104509
 C           -5.247828           -0.081420            0.538345
 C           -5.849283           -0.902576            1.564053
 C           -5.130907           -1.882190            2.179914
 C           -3.760660           -2.115904            1.823274
 C           -3.150982           -1.361370            0.858856
 C           -1.729682           -1.622644            0.518180
 C           -1.404657           -2.556473           -0.463466
 C           -2.414400           -3.268388           -1.227874
 C           -2.067480           -4.185414           -2.166609
 C           -0.677910           -4.476563           -2.433637
 C            0.303492           -3.832212           -1.752760
 C           -0.016295           -2.842785           -0.738066
 C            0.978937           -2.186614           -0.031858
 C            0.666763           -1.227034            0.967359
 C            1.687606           -0.558254            1.712626
 C            3.107616           -0.915461            1.467146
 C            3.871489           -0.196183            0.463021
 C            3.316943            0.841110           -0.300522
 C            4.079402            1.517559           -1.263877
 C            3.523532            2.587568           -2.060799
 C            4.283462            3.230007           -2.991337
 C            5.656905            2.855317           -3.198362
 C            6.218519            1.852035           -2.467939
 C            5.447022            1.144532           -1.471229
 C            6.003217            0.108060           -0.708431
 C            5.240106           -0.568932            0.254071
 C            5.807011           -1.638408            1.043613
 C            5.055267           -2.288190            1.975032
 C            3.684462           -1.922254            2.191288
 C            1.362536            0.389195            2.681332
 C            2.371884            1.096975            3.450382
 C            2.024150            2.004190            4.398343
 C            0.634351            2.293410            4.666409
 C           -0.346212            1.665068            3.969828
 C           -0.025624            0.685554            2.945874
 C           -1.020374            0.033283            2.235748
 C           -0.708031           -0.931680            1.241864
 C           -3.880222           -0.309411            0.173075
 C           -3.294358            0.481580           -0.825942
 C           -4.024038            1.491474           -1.469737
 C           -3.436680            2.315453           -2.501932
 C           -4.164919            3.291743           -3.112253
 H           -6.080954            4.312976           -3.252896
 H           -7.163084            2.929621           -1.481867
 H           -7.016276            1.102595            0.173726
 H           -6.889418           -0.714935            1.826556
 H           -5.572704           -2.509542            2.953112
 H           -3.218320           -2.907998            2.339897
 H           -3.461494           -3.037712           -1.022887
 H           -2.820779           -4.722032           -2.741828
 H           -0.449788           -5.222590           -3.193257
 H            1.356790           -4.036641           -1.942759
 H            2.028422           -2.406368           -0.240836
 H            2.274516            1.126358           -0.141131
 H            2.482497            2.861606           -1.893310
 H            3.874590            4.036702           -3.597472
 H            6.228522            3.394854           -3.952085
 H            7.256720            1.557941           -2.614222
 H            7.043139           -0.174798           -0.866503
 H            6.848341           -1.906413            0.871147
 H            5.470321           -3.095841            2.576808
 H            3.115569           -2.465664            2.945860
 H            3.419271            0.875652            3.236962
 H            2.777047            2.536965            4.977808
 H            0.405452            3.026572            5.438295
 H           -1.399611            1.872422            4.156296
 H           -2.069819            0.259376            2.438382
 H           -2.253399            0.306361           -1.107034
 H           -2.398304            2.130117           -2.774411
 H           -3.732441            3.917849           -3.890961

