96

 C          -10.747927           -1.741773            2.540129
 C          -10.743407           -0.961181            1.424521
 C           -9.489320           -0.482568            0.917915
 C           -9.133855            0.311753           -0.161737
 C           -9.851164            1.001655           -1.219504
 C           -9.257777            1.179494           -2.482311
 C           -9.959405            1.835661           -3.495270
 C          -11.250518            2.318844           -3.257884
 C          -11.840406            2.147733           -2.001130
 C          -11.146933            1.493379           -0.981202
 O           -7.738106            0.444259           -0.207683
 C           -7.213986           -0.284113            0.871622
 C           -5.766340           -0.256408            0.977868
 C           -5.044507            0.872821            0.549325
 C           -3.654087            0.892777            0.646210
 C           -2.968855           -0.215573            1.169117
 C           -1.488330           -0.195289            1.258789
 C           -0.864175            0.165180            2.450871
 C           -1.609597            0.527011            3.644584
 C           -0.972483            0.867077            4.793879
 C            0.470503            0.879620            4.861257
 C            1.212495            0.555991            3.772174
 C            0.578278            0.187444            2.517995
 C            1.328782           -0.137583            1.399950
 C            0.710505           -0.506031            0.175420
 C            1.478952           -0.842149           -0.982738
 C            2.959462           -0.795820           -0.899794
 C            3.680488           -1.961181           -0.596582
 C            5.071657           -1.921718           -0.506645
 C            5.758903           -0.714110           -0.725413
 C            7.207387           -0.678698           -0.634648
 C            8.234110           -1.586658           -0.847651
 C            8.275675           -2.953684           -1.281746
 C            9.484145           -3.568903           -1.406042
 C           10.721442           -2.875057           -1.116937
 C           10.730969           -1.576190           -0.708371
 C            9.481294           -0.887879           -0.556589
 C            9.140172            0.403538           -0.183954
 C            9.873696            1.587882            0.227588
 C           11.092666            1.453284            0.916081
 C           11.803926            2.591952            1.299804
 C           11.307413            3.866112            1.005492
 C           10.091259            4.002316            0.327885
 C            9.372851            2.870179           -0.060562
 O            7.746312            0.554053           -0.234184
 C            5.033689            0.452752           -1.029143
 C            3.642770            0.410887           -1.117468
 C            0.854988           -1.215030           -2.171526
 C            1.599790           -1.558159           -3.370837
 C            0.963096           -1.931260           -4.510173
 C           -0.479071           -1.996424           -4.561381
 C           -1.220877           -1.677564           -3.470645
 C           -0.586751           -1.268790           -2.229051
 C           -1.338034           -0.936680           -1.113209
 C           -0.720184           -0.545207            0.104008
 C           -3.687119           -1.340957            1.601190
 C           -5.078602           -1.363631            1.505212
 C           -8.250385           -0.862305            1.588545
 C           -8.306902           -1.675305            2.769574
 C           -9.520725           -2.094967            3.222380
 H          -11.679053           -2.125772            2.954243
 H          -11.655551           -0.693764            0.895806
 H           -8.250571            0.802084           -2.661661
 H           -9.499527            1.970871           -4.473234
 H          -11.795470            2.829875           -4.049719
 H          -12.843059            2.529550           -1.814627
 H          -11.603399            1.373229            0.000509
 H           -5.581115            1.730548            0.140332
 H           -3.094032            1.768178            0.316732
 H           -2.699148            0.517218            3.584795
 H           -1.526669            1.139191            5.691037
 H            0.935074            1.155854            5.806590
 H            2.301754            0.561503            3.803593
 H            2.419739           -0.113808            1.452990
 H            3.147899           -2.897160           -0.427407
 H            5.626087           -2.826135           -0.255861
 H            7.339627           -3.459496           -1.507623
 H            9.556751           -4.605205           -1.732957
 H           11.648796           -3.431719           -1.243362
 H           11.652538           -1.036990           -0.500502
 H           11.475688            0.462581            1.157844
 H           12.747608            2.486165            1.833108
 H           11.866644            4.750933            1.304935
 H            9.703375            4.994306            0.100757
 H            8.423910            2.971107           -0.587335
 H            5.567660            1.389830           -1.193091
 H            3.081575            1.314289           -1.356728
 H            2.688706           -1.504172           -3.324139
 H            1.516744           -2.189533           -5.411678
 H           -0.943508           -2.306549           -5.496094
 H           -2.309532           -1.719066           -3.490142
 H           -2.428635           -0.976977           -1.161726
 H           -3.153232           -2.200161            2.007317
 H           -5.632476           -2.245010            1.828301
 H           -7.377704           -1.925774            3.276110
 H           -9.605342           -2.712329            4.115514

