96

 C           -5.157062            2.078046           -0.310704
 C           -3.813317            2.060814           -0.520923
 C           -3.086464            0.811189           -0.671262
 C           -1.624280            0.892270           -0.909134
 C           -1.138310            1.039463           -2.206853
 C           -2.015025            1.123881           -3.362299
 C           -1.513458            1.271851           -4.614860
 C           -0.087579            1.347665           -4.833391
 C            0.773845            1.269155           -3.787485
 C            0.286490            1.110808           -2.428079
 C            1.158111            1.026780           -1.354305
 C            0.680627            0.878223           -0.025207
 C            1.573983            0.789780            1.087655
 C            3.035822            0.843901            0.840771
 C            3.755218           -0.295664            0.620274
 C            5.162095           -0.184414            0.372206
 C            6.157205           -1.108544            0.092434
 C            6.216627           -2.555770           -0.013353
 C            5.375031           -3.345008            0.791104
 C            5.423636           -4.736620            0.691566
 C            6.305025           -5.348412           -0.206019
 C            7.144441           -4.565098           -1.005229
 C            7.106677           -3.172546           -0.910125
 O            7.373847           -0.440713           -0.116791
 C            7.130963            0.929378            0.058287
 C            8.290096            1.789550           -0.106218
 C            8.413939            2.951896            0.675595
 C            9.520164            3.787137            0.507283
 C           10.504322            3.471710           -0.435472
 C           10.386166            2.311919           -1.208591
 C            9.285783            1.468287           -1.045538
 C            5.791769            1.131227            0.353315
 C            4.995571            2.300195            0.595545
 C            3.664639            2.154325            0.834735
 C            1.088962            0.661096            2.386839
 C            1.968182            0.575918            3.540434
 C            1.468201            0.456629            4.796443
 C            0.041662            0.410445            5.019617
 C           -0.821524            0.483942            3.974839
 C           -0.336526            0.611955            2.611153
 C           -1.208673            0.687032            1.537335
 C           -0.732302            0.817541            0.205383
 C           -3.721260           -0.396387           -0.609623
 C           -5.136497           -0.420422           -0.387206
 C           -6.069920           -1.441303           -0.291861
 C           -6.013609           -2.892165           -0.326989
 C           -4.879253           -3.554210            0.176612
 C           -4.815823           -4.948309            0.141999
 C           -5.876100           -5.688706           -0.391328
 C           -7.006689           -5.032228           -0.888894
 C           -7.081175           -3.638247           -0.856355
 O           -7.348309           -0.893809           -0.102428
 C           -7.200519            0.500169           -0.057826
 C           -8.425764            1.246514            0.170750
 C           -9.651836            0.782095           -0.336718
 C          -10.820377            1.511606           -0.108251
 C          -10.775617            2.700146            0.628053
 C           -9.556915            3.162425            1.136210
 C           -8.382669            2.441807            0.910932
 C           -5.866599            0.833052           -0.235615
 H           -5.716913            3.005420           -0.206479
 H           -3.236969            2.983546           -0.590005
 H           -3.090905            1.063264           -3.187587
 H           -2.166941            1.335980           -5.483496
 H            0.266459            1.467855           -5.855929
 H            1.852279            1.321739           -3.933151
 H            2.236343            1.075540           -1.524276
 H            3.292669           -1.280964            0.613343
 H            4.693592           -2.870746            1.496994
 H            4.773601           -5.346222            1.317856
 H            6.338280           -6.433991           -0.281054
 H            7.829290           -5.041519           -1.705349
 H            7.763509           -2.558445           -1.526179
 H            7.653643            3.193958            1.417348
 H            9.616982            4.685785            1.115206
 H           11.363021            4.128228           -0.566022
 H           11.153126            2.065343           -1.941549
 H            9.191700            0.560270           -1.641346
 H            5.477771            3.275443            0.571727
 H            3.023341            3.015034            1.025399
 H            3.044149            0.612942            3.360527
 H            2.123080            0.393438            5.664134
 H           -0.311083            0.316210            6.045348
 H           -1.900069            0.450291            4.124930
 H           -2.286936            0.648719            1.708168
 H           -3.188955           -1.337573           -0.735291
 H           -4.056106           -2.980022            0.601534
 H           -3.937700           -5.459142            0.535111
 H           -5.821437           -6.775675           -0.417513
 H           -7.831954           -5.608805           -1.304379
 H           -7.962427           -3.123024           -1.238336
 H           -9.683005           -0.147327           -0.905507
 H          -11.768976            1.152902           -0.505484
 H          -11.689137            3.264525            0.807769
 H           -9.522614            4.085533            1.713343
 H           -7.436355            2.798043            1.316664

