90

 C          -13.916785            1.940174            3.148172
 C          -13.324218            1.355709            2.082667
 C          -11.878851            1.148865            2.066187
 N          -11.297284            0.575554            1.020232
 C           -9.910912            0.402443            1.053054
 C           -9.269087           -0.200546           -0.040273
 C           -7.876395           -0.373512           -0.009545
 N           -7.236910           -0.972547           -1.098602
 C           -5.920175           -1.124238           -1.041520
 C           -5.200999           -1.745412           -2.151119
 C           -3.860469           -1.903782           -2.095675
 C           -3.090369           -1.459738           -0.937730
 C           -1.621368           -1.663463           -0.962297
 C           -1.067133           -2.818701           -0.415259
 C           -1.876097           -3.875478            0.167243
 C           -1.302082           -4.979789            0.709096
 C            0.134075           -5.135385            0.719800
 C            0.933173           -4.180674            0.179864
 C            0.367712           -2.981822           -0.414497
 C            1.177178           -2.000538           -0.963893
 C            0.627778           -0.820263           -1.531372
 C            1.455781            0.204622           -2.086225
 C            2.928523            0.033457           -2.044192
 C            3.569142           -0.651947           -3.162527
 C            4.904435           -0.855416           -3.190544
 C            5.748624           -0.387265           -2.093756
 N            7.059392           -0.589132           -2.124173
 C            7.820784           -0.121500           -1.048885
 C            9.210224           -0.319842           -1.052316
 C            9.973848            0.146962            0.029699
 N           11.356801           -0.053038            0.026204
 C           12.054370            0.396282            1.062084
 C           13.502009            0.212167            1.110079
 C           14.212389            0.668694            2.166165
 C           13.568540            1.350710            3.277029
 C           12.232489            1.556312            3.298967
 C           11.399029            1.091294            2.194139
 N           10.087895            1.292550            2.217909
 C            9.333538            0.827394            1.138170
 C            7.944756            1.027478            1.141531
 C            7.182843            0.560714            0.060010
 N            5.801021            0.763132            0.069728
 C            5.098203            0.312055           -0.961281
 C            3.654115            0.496529           -0.995758
 C            0.901357            1.357225           -2.638071
 C            1.710745            2.416476           -3.215811
 C            1.138442            3.535840           -3.727559
 C           -0.296348            3.703876           -3.713642
 C           -1.096612            2.739396           -3.193401
 C           -0.533368            1.522287           -2.634924
 C           -1.343449            0.535861           -2.096191
 C           -0.794487           -0.647768           -1.534904
 C           -3.696171           -0.876352            0.126662
 C           -5.138689           -0.676875            0.134676
 N           -5.725085           -0.104767            1.178663
 C           -7.110655            0.065466            1.140616
 C           -7.751438            0.668401            2.233703
 C           -9.143357            0.841245            2.202072
 N           -9.777347            1.441613            3.292807
 C          -11.093915            1.595690            3.240432
 C          -11.804750            2.217800            4.353836
 C          -13.146190            2.377423            4.300929
 H          -14.995413            2.103114            3.177349
 H          -13.881036            1.018800            1.205177
 H           -9.849688           -0.532380           -0.907920
 H           -5.798410           -2.067540           -3.008165
 H           -3.304867           -2.368851           -2.913233
 H           -2.959855           -3.751842            0.156872
 H           -1.904004           -5.774134            1.149423
 H            0.547067           -6.035897            1.172463
 H            2.018422           -4.279985            0.179481
 H            2.261769           -2.129088           -0.957934
 H            2.921236           -0.991840           -3.973711
 H            5.406118           -1.367614           -4.015902
 H            9.694675           -0.833515           -1.889884
 H           13.962302           -0.303125            0.263801
 H           15.294643            0.539478            2.218910
 H           14.207410            1.690636            4.093940
 H           11.723515            2.065776            4.120727
 H            7.459967            1.541959            1.978897
 H            3.196456            1.015282           -0.148018
 H            2.793463            2.283940           -3.222645
 H            1.740819            4.334605           -4.159287
 H           -0.707275            4.622505           -4.130280
 H           -2.180730            2.848593           -3.173327
 H           -2.427613            0.668095           -2.094466
 H           -3.140088           -0.536645            1.005665
 H           -7.170389            1.000072            3.101632
 H          -11.202108            2.537120            5.207518
 H          -13.694500            2.840373            5.123134

