94

 C          -14.957285            1.248754           -0.374468
 C          -14.029044            0.372338           -0.826932
 C          -12.628653            0.515742           -0.464999
 C          -11.645384           -0.342652           -0.895325
 C          -10.282611           -0.141158           -0.495251
 C           -9.243396           -0.985125           -0.903698
 C           -7.924181           -0.740933           -0.479990
 N           -6.921048           -1.607278           -0.913887
 C           -5.667587           -1.388485           -0.523954
 C           -4.618998           -2.298899           -0.984330
 C           -3.333374           -2.114478           -0.610721
 C           -2.956524           -1.005256            0.255937
 C           -1.525805           -0.866273            0.620988
 C           -1.025421           -1.519637            1.745316
 C           -1.847151           -2.377651            2.581675
 C           -1.330707           -2.994472            3.675128
 C            0.054328           -2.808227            4.041904
 C            0.863770           -2.017851            3.292397
 C            0.361886           -1.346253            2.106032
 C            1.185931           -0.550046            1.327235
 C            0.697972            0.106697            0.166605
 C            1.544726            0.922466           -0.647382
 C            2.973539            1.062755           -0.275027
 C            3.343903            2.173514            0.592512
 C            4.623797            2.348554            0.989561
 C            5.672365            1.425013            0.555853
 N            6.917288            1.625077            0.981616
 C            7.919671            0.744184            0.575894
 C            9.227875            0.962473            1.045424
 C           10.265484            0.102412            0.667338
 C           11.616574            0.275561            1.117151
 C           12.598984           -0.597173            0.714470
 C           13.988165           -0.481447            1.126185
 C           14.916559           -1.369761            0.697836
 C           14.552296           -2.463994           -0.182899
 C           13.277166           -2.628790           -0.603422
 C           12.230512           -1.700563           -0.176766
 N           10.987427           -1.892549           -0.613137
 C            9.985405           -1.010331           -0.210261
 C            8.677014           -1.228335           -0.679711
 C            7.638671           -0.370456           -0.298839
 C            6.285081           -0.551188           -0.737297
 C            5.300841            0.316630           -0.327106
 C            3.909803            0.183208           -0.717852
 C            1.045504            1.573411           -1.772968
 C            1.869477            2.428042           -2.610666
 C            1.355002            3.042985           -3.705901
 C           -0.030711            2.859689           -4.071729
 C           -0.842231            2.072558           -3.321142
 C           -0.342155            1.400907           -2.133799
 C           -1.167314            0.606325           -1.354646
 C           -0.679815           -0.050944           -0.193660
 C           -3.890433           -0.129960            0.712089
 C           -5.287327           -0.273815            0.347371
 C           -6.270749            0.584854            0.778269
 C           -7.633530            0.383219            0.379399
 C           -8.672896            1.226978            0.787964
 C           -9.992194            0.983141            0.364192
 N          -10.995210            1.850822            0.795083
 C          -12.249028            1.633105            0.404061
 C          -13.296375            2.546523            0.859859
 C          -14.582036            2.356603            0.484582
 H          -16.009954            1.151437           -0.638415
 H          -14.297440           -0.464041           -1.471850
 H          -11.876937           -1.188672           -1.544382
 H           -9.439718           -1.840448           -1.554318
 H           -4.931247           -3.118871           -1.635169
 H           -2.538077           -2.785048           -0.941791
 H           -2.892533           -2.511697            2.299350
 H           -1.941068           -3.641907            4.303418
 H            0.420103           -3.319281            4.931209
 H            1.909764           -1.861843            3.555248
 H            2.233995           -0.419525            1.605951
 H            2.548127            2.852360            0.905208
 H            4.930804            3.169331            1.641989
 H            9.417026            1.809947            1.708449
 H           11.840266            1.111729            1.781671
 H           14.248298            0.344469            1.787871
 H           15.961107           -1.292402            0.998358
 H           15.345011           -3.146342           -0.491339
 H           12.974453           -3.442382           -1.265612
 H            8.486925           -2.076168           -1.342148
 H            6.058405           -1.391193           -1.396088
 H            3.644333           -0.647647           -1.372800
 H            2.914947            2.560096           -2.327635
 H            1.967207            3.686698           -4.336260
 H           -0.395052            3.370199           -4.961963
 H           -1.888600            1.919241           -3.583939
 H           -2.215653            0.476789           -1.632531
 H           -3.619181            0.702324            1.363055
 H           -6.037000            1.431460            1.426187
 H           -8.475449            2.082676            1.438156
 H          -12.985054            3.370265            1.505450
 H          -15.375553            3.027783            0.814706

