94

 C          -13.290170            4.083136           -2.106160
 C          -11.946403            4.019133           -2.262946
 C          -11.187601            2.895312           -1.739840
 C           -9.824540            2.778906           -1.868912
 C           -9.140690            1.640770           -1.326231
 C           -7.755197            1.475729           -1.429744
 C           -7.134881            0.339495           -0.879052
 N           -5.752252            0.220103           -1.007388
 C           -5.146071           -0.846168           -0.490043
 C           -3.697999           -0.958928           -0.625115
 C           -3.038770           -2.025238           -0.105978
 C           -1.564471           -2.143521           -0.220979
 C           -0.996301           -2.789727           -1.316043
 C           -1.795224           -3.386989           -2.372285
 C           -1.209947           -3.993809           -3.436170
 C            0.228987           -4.064753           -3.544842
 C            1.019368           -3.529565           -2.580200
 C            0.441666           -2.868836           -1.422597
 C            1.241865           -2.311763           -0.438275
 C            0.678892           -1.650906            0.685611
 C            1.496034           -1.057884            1.697274
 C            2.971580           -1.126959            1.561164
 C            3.652758           -2.297906            2.096888
 C            4.998162           -2.417193            2.010200
 C            5.805433           -1.382160            1.385092
 C            7.174258           -1.448168            1.279916
 C            7.905537           -0.384378            0.653058
 C            9.299279           -0.396247            0.523015
 C            9.962710            0.678083           -0.098722
 N           11.352214            0.625785           -0.204971
 C           11.993328            1.635532           -0.789835
 C           13.450327            1.574511           -0.898467
 C           14.136944            2.581048           -1.486140
 C           13.452503            3.743154           -2.021829
 C           12.104549            3.853350           -1.948804
 C           11.303607            2.809400           -1.331675
 C            9.934364            2.867935           -1.230985
 C            9.208096            1.799384           -0.608172
 C            7.814747            1.810991           -0.480114
 C            7.152580            0.737968            0.143449
 N            5.764321            0.797932            0.252481
 C            5.119618           -0.205936            0.842726
 C            3.667507           -0.129635            0.959458
 C            0.927128           -0.407633            2.790144
 C            1.725165            0.205253            3.838329
 C            1.139271            0.847502            4.880916
 C           -0.299430            0.936319            4.978048
 C           -1.089106            0.371702            4.029931
 C           -0.510634           -0.326510            2.895026
 C           -1.310154           -0.899109            1.919379
 C           -0.746736           -1.566280            0.799645
 C           -3.757991           -3.084555            0.588519
 C           -5.101833           -3.026268            0.739373
 C           -5.869296           -1.909302            0.213103
 C           -7.233382           -1.798716            0.341252
 C           -7.923193           -0.663963           -0.202425
 C           -9.309585           -0.498470           -0.099927
 C           -9.930782            0.637897           -0.650639
 N          -11.314001            0.763204           -0.523934
 C          -11.915106            1.833467           -1.039295
 C          -13.365557            1.959466           -0.902203
 C          -14.012008            3.032576           -1.412371
 H          -13.869955            4.920098           -2.493828
 H          -11.391953            4.800666           -2.782296
 H           -9.237485            3.541917           -2.382220
 H           -7.138753            2.222296           -1.936307
 H           -3.183719           -0.152110           -1.154282
 H           -2.881123           -3.328372           -2.282760
 H           -1.804002           -4.440010           -4.232848
 H            0.651212           -4.556338           -4.420023
 H            2.106354           -3.573105           -2.644225
 H            2.328921           -2.371551           -0.525253
 H            3.035459           -3.064687            2.566710
 H            5.518497           -3.289819            2.406330
 H            7.730845           -2.302556            1.668205
 H            9.888863           -1.234834            0.900758
 H           13.937442            0.688572           -0.486725
 H           15.223345            2.550961           -1.575479
 H           14.063531            4.518785           -2.482322
 H           11.577886            4.720594           -2.346773
 H            9.374373            3.720282           -1.618480
 H            7.224638            2.648622           -0.859663
 H            3.181522            0.758377            0.546383
 H            2.811012            0.134134            3.757838
 H            1.733083            1.311637            5.667616
 H           -0.722010            1.468047            5.829287
 H           -2.176044            0.427462            4.085481
 H           -2.397234           -0.833593            2.002942
 H           -3.170460           -3.917581            0.976683
 H           -5.650436           -3.812638            1.258770
 H           -7.817131           -2.564051            0.855048
 H           -9.925759           -1.245086            0.406404
 H          -13.881535            1.154129           -0.376037
 H          -15.092971            3.141783           -1.318624

