94

 C           13.530901           -3.296740            1.875902
 C           14.182071           -2.072556            1.447771
 C           13.470983           -1.049678            0.920374
 C           12.020307           -1.155524            0.769267
 N           11.354078           -0.128141            0.246542
 C            9.970749           -0.224536            0.098213
 C            9.280228            0.868798           -0.457267
 C            7.891990            0.813393           -0.628400
 C            7.134831            1.895167           -1.190230
 C            5.773227            1.784184           -1.341640
 C            4.940715            2.834647           -1.904605
 C            3.604081            2.670508           -2.040317
 C            2.957957            1.433893           -1.621954
 C            1.489687            1.318233           -1.800898
 C            0.969766            0.800957           -2.985020
 C            1.812709            0.380858           -4.091322
 C            1.274977           -0.135513           -5.225607
 C           -0.155810           -0.279945           -5.364276
 C           -0.986479            0.105002           -4.362686
 C           -0.460505            0.663493           -3.129044
 C           -1.301970            1.050443           -2.098728
 C           -0.788735            1.583877           -0.886701
 C           -1.647655            1.970025            0.188320
 C           -3.112745            1.790506            0.038788
 C           -3.728594            0.667386            0.486597
 C           -5.172246            0.508900            0.349044
 N           -5.737380           -0.604006            0.811656
 C           -7.117571           -0.759579            0.695145
 C           -7.695813           -1.940360            1.195279
 C           -9.078162           -2.138900            1.108328
 C           -9.719745           -3.321105            1.606080
 C          -11.081763           -3.467961            1.497689
 C          -11.799016           -4.636792            1.978715
 C          -13.143478           -4.730296            1.845425
 C          -13.907433           -3.667336            1.219143
 C          -13.300757           -2.552833            0.750061
 C          -11.851589           -2.393547            0.864709
 N          -11.289666           -1.283181            0.391312
 C           -9.908064           -1.126060            0.498466
 C           -9.328324            0.053589           -0.004806
 C           -7.945756            0.254057            0.084307
 C           -7.299077            1.437251           -0.406858
 C           -5.937794            1.584836           -0.286889
 C           -5.213850            2.756186           -0.753224
 C           -3.873105            2.857513           -0.597823
 C           -1.127102            2.489079            1.371956
 C           -1.968149            2.895376            2.484834
 C           -1.427622            3.380452            3.631738
 C            0.004020            3.509570            3.775949
 C            0.831991            3.153023            2.761686
 C            0.303010            2.628030            1.514923
 C            1.143084            2.253333            0.478968
 C            0.629122            1.724698           -0.734495
 C            3.678913            0.417221           -1.085514
 C            5.122806            0.541038           -0.917809
 N            5.792084           -0.480781           -0.388679
 C            7.172918           -0.374696           -0.231163
 C            7.861819           -1.466321            0.328007
 C            9.249555           -1.410477            0.498171
 C           10.001613           -2.495609            1.058593
 C           11.364533           -2.392893            1.201242
 C           12.190464           -3.450638            1.759040
 H           14.160343           -4.082521            2.292247
 H           15.264144           -2.009633            1.567170
 H           13.933711           -0.117898            0.589466
 H            9.844650            1.756490           -0.752118
 H            7.665568            2.799656           -1.491986
 H            5.434832            3.756602           -2.213019
 H            2.968094            3.448804           -2.463737
 H            2.892326            0.491952           -3.978186
 H            1.902394           -0.454218           -6.056986
 H           -0.538745           -0.705654           -6.290502
 H           -2.068040            0.003796           -4.448129
 H           -2.382891            0.940041           -2.210773
 H           -3.181643           -0.150363            0.963799
 H           -7.049548           -2.694514            1.650888
 H           -9.102094           -4.092403            2.069044
 H          -11.213294           -5.427732            2.446944
 H          -13.692041           -5.601574            2.201642
 H          -14.986789           -3.801596            1.141473
 H          -13.849632           -1.737701            0.274639
 H           -9.973864            0.806512           -0.462850
 H           -7.912981            2.210113           -0.872209
 H           -5.792754            3.548033           -1.229706
 H           -3.318239            3.732396           -0.938880
 H           -3.048503            2.795061            2.368892
 H           -2.053914            3.683226            4.469935
 H            0.389956            3.897517            4.717439
 H            1.914317            3.243210            2.850614
 H            2.224461            2.357824            0.593298
 H            3.219144           -0.520948           -0.763075
 H            7.296673           -2.353352            0.624133
 H            9.466371           -3.395931            1.364507
 H           11.688853           -4.364816            2.076041

