90

 C            8.084545            2.089899           -1.603305
 C            7.095073            3.008968           -1.361791
 C            5.835814            2.590360           -0.831032
 C            5.593823            1.217818           -0.554661
 C            6.651087            0.280295           -0.807793
 C            7.859454            0.719437           -1.321728
 C            6.428525           -1.142007           -0.505873
 C            7.439470           -2.066366           -0.712946
 C            7.251944           -3.442281           -0.437736
 C            6.044241           -3.879486            0.043873
 C            4.981640           -2.952181            0.267774
 C            5.152610           -1.567843            0.003167
 C            4.064416           -0.635893            0.237058
 C            2.858992           -1.156310            0.691164
 C            1.597377           -0.418686            0.957721
 C            1.296117            0.005861            2.252622
 C            2.231953           -0.133472            3.354591
 C            1.912814            0.292521            4.603416
 C            0.627025            0.894108            4.870014
 C           -0.280573            1.049694            3.872938
 C            0.015566            0.615725            2.518751
 C           -0.903889            0.770353            1.493374
 C           -0.611801            0.350560            0.169168
 C           -1.557892            0.504864           -0.894531
 C           -2.835184            1.211860           -0.620448
 C           -4.052533            0.646646           -0.260895
 C           -4.280867           -0.805359           -0.064181
 C           -3.279321           -1.749872           -0.185469
 C           -3.516098           -3.142077           -0.015684
 C           -4.767737           -3.601560            0.289779
 C           -5.840500           -2.669280            0.447628
 C           -5.605543           -1.278698            0.273908
 C           -6.710748           -0.379797            0.450500
 C           -7.961875           -0.873732            0.778848
 C           -8.183032           -2.263056            0.948259
 C           -7.145161           -3.145225            0.785379
 C           -6.488081            1.064041            0.279616
 C           -7.534251            1.956122            0.450227
 C           -7.351695            3.350429            0.287440
 C           -6.114387            3.838020           -0.048721
 C           -5.015651            2.944606           -0.232585
 C           -5.178028            1.543566           -0.069884
 C           -3.737859            3.477075           -0.590839
 C           -2.686265            2.630587           -0.779166
 C           -1.254046            0.088969           -2.190640
 C           -2.187730            0.232705           -3.294025
 C           -1.863568           -0.181684           -4.545256
 C           -0.575730           -0.778753           -4.812982
 C            0.329940           -0.939012           -3.814966
 C            0.030400           -0.513173           -2.458738
 C            0.949078           -0.670457           -1.433551
 C            0.656981           -0.252936           -0.108023
 C            2.702453           -2.558423            0.956246
 C            3.728641           -3.433854            0.760250
 C            4.313713            0.801970           -0.024682
 C            3.375345            1.786130            0.221705
 C            3.619972            3.160395           -0.051334
 C            4.819198            3.562318           -0.572541
 H            9.048585            2.394010           -2.008179
 H            7.250472            4.066921           -1.567669
 H            8.668339            0.012901           -1.518720
 H            8.410387           -1.746538           -1.097497
 H            8.072636           -4.135569           -0.615750
 H            5.875235           -4.933105            0.260381
 H            3.201360           -0.588173            3.142098
 H            2.611673            0.195692            5.433083
 H            0.415862            1.214584            5.888977
 H           -1.255232            1.501560            4.054850
 H           -1.879085            1.218460            1.699579
 H           -2.249895           -1.482377           -0.417856
 H           -2.677844           -3.828271           -0.137165
 H           -4.966880           -4.663884            0.418111
 H           -8.807816           -0.196788            0.914929
 H           -9.181691           -2.610539            1.208413
 H           -7.294822           -4.216368            0.911926
 H           -8.530656            1.595289            0.714545
 H           -8.200998            4.016701            0.431110
 H           -5.949912            4.906022           -0.182102
 H           -3.627150            4.553881           -0.710986
 H           -1.701916            3.015238           -1.056778
 H           -3.159178            0.682806           -3.080808
 H           -2.559868           -0.079154           -5.376326
 H           -0.361697           -1.091906           -5.833566
 H            1.305642           -1.388376           -3.997296
 H            1.924154           -1.118569           -1.640205
 H            1.733464           -2.906409            1.322237
 H            3.614204           -4.496776            0.968410
 H            2.395194            1.565267            0.641101
 H            2.829169            3.879293            0.163422
 H            5.020205            4.609144           -0.792583

