96

 C           11.780452           -3.234768            0.223402
 C           11.332087           -1.960340            0.124369
 C            9.911922           -1.674196           -0.026516
 C            9.436738           -0.386500           -0.129075
 C            8.036816           -0.119945           -0.277776
 C            7.550792            1.192727           -0.385330
 C            6.180280            1.441809           -0.533330
 C            5.639425            2.762269           -0.650829
 C            4.284874            2.948358           -0.798355
 C            3.686604            4.265399           -0.923902
 C            2.347812            4.406732           -1.068596
 C            1.477995            3.250914           -1.100667
 C            1.967430            1.987746           -0.988956
 C            1.044337            0.826678           -1.021837
 C            0.743467            0.203646           -2.231114
 C            1.367468            0.587030           -3.485720
 C            1.038781           -0.027570           -4.650599
 C            0.052859           -1.082718           -4.673875
 C           -0.553905           -1.482858           -3.527925
 C           -0.231410           -0.861043           -2.255105
 C           -0.848089           -1.264092           -1.081953
 C           -0.531457           -0.660464            0.163845
 C           -1.156936           -1.074985            1.381146
 C           -2.141788           -2.183590            1.338395
 C           -3.557585           -1.875018            1.075039
 N           -3.928267           -0.612791            0.879353
 C           -5.269238           -0.327467            0.625876
 C           -5.643316            1.011661            0.416314
 C           -6.981368            1.343610            0.158140
 C           -7.387426            2.701323           -0.059052
 C           -8.701893            3.022969           -0.311058
 C           -9.129879            4.397555           -0.533085
 C          -10.428523            4.694150           -0.779288
 C          -11.430461            3.648266           -0.829035
 C          -11.088514            2.352634           -0.630286
 C           -9.708093            1.973650           -0.361137
 C           -9.340548            0.663045           -0.156303
 C           -7.978505            0.304883            0.107932
 C           -7.601241           -1.031273            0.317136
 C           -6.266329           -1.369680            0.574504
 C           -5.832673           -2.717246            0.790839
 C           -4.507342           -2.990673            1.036890
 C           -4.012399           -4.337939            1.257097
 C           -2.698097           -4.563388            1.492361
 C           -1.750460           -3.470052            1.533096
 C           -0.842593           -0.463638            2.593314
 C           -1.477262           -0.836171            3.845724
 C           -1.135003           -0.233900            5.013309
 C           -0.124936            0.798033            5.041287
 C            0.490264            1.189373            3.896680
 C            0.152802            0.581582            2.621191
 C            0.766808            0.986454            1.447004
 C            0.437118            0.395029            0.199117
 C            3.414559            1.768923           -0.830224
 N            3.885382            0.529671           -0.721565
 C            5.258035            0.332284           -0.573379
 C            5.741490           -0.983677           -0.464012
 C            7.115423           -1.226782           -0.318476
 C            7.633554           -2.559199           -0.209637
 C            8.982871           -2.792724           -0.068346
 C            9.524424           -4.140466            0.042635
 C           10.855614           -4.349787            0.181506
 H           12.839909           -3.459939            0.336604
 H           12.014839           -1.111860            0.154292
 H           10.120944            0.461103           -0.099447
 H            8.248619            2.029371           -0.354265
 H            6.323670            3.611108           -0.621440
 H            4.354649            5.125671           -0.897733
 H            1.883597            5.387912           -1.164354
 H            0.405961            3.426648           -1.216162
 H            2.118358            1.376971           -3.456555
 H            1.507334            0.253097           -5.591886
 H           -0.181557           -1.540828           -5.632613
 H           -1.298168           -2.277896           -3.525298
 H           -1.600254           -2.053881           -1.109096
 H           -4.873325            1.786355            0.457876
 H           -6.622546            3.477532           -0.018955
 H           -8.365823            5.173177           -0.492957
 H          -10.758364            5.718535           -0.946362
 H          -12.459434            3.942388           -1.030743
 H          -11.830327            1.555574           -0.664970
 H          -10.083629           -0.133128           -0.191175
 H           -8.356437           -1.816073            0.278669
 H           -6.574185           -3.516136            0.754933
 H           -4.736759           -5.151107            1.224677
 H           -2.311959           -5.569012            1.657258
 H           -0.703187           -3.713688            1.724873
 H           -2.245849           -1.608658            3.813589
 H           -1.610679           -0.507493            5.953096
 H            0.120059            1.246515            6.001967
 H            1.252177            1.967689            3.897377
 H            1.527131            1.768568            1.475104
 H            5.028190           -1.811264           -0.495255
 H            6.926105           -3.388340           -0.242578
 H            8.817757           -4.968939            0.009574
 H           11.269836           -5.353531            0.265395

