96

 C            4.641434            6.459300            1.081619
 C            3.261130            6.215503            1.459055
 C            2.724268            4.976434            1.385034
 C            3.528301            3.846755            0.917613
 N            2.965542            2.643716            0.857939
 C            3.720000            1.558315            0.414426
 C            5.099622            1.720049            0.020142
 C            5.673608            3.032854            0.099389
 C            4.921519            4.095095            0.537299
 C            5.433178            5.451219            0.644149
 C            5.829848            0.611096           -0.417938
 C            5.240200           -0.662515           -0.479841
 C            5.986880           -1.799898           -0.926330
 C            5.416392           -3.052038           -0.985383
 C            6.159019           -4.220075           -1.437433
 C            5.574895           -5.441819           -1.485877
 C            4.193342           -5.619154           -1.086637
 C            3.457054           -4.565646           -0.657911
 C            4.030435           -3.229045           -0.587455
 C            3.296220           -2.146235           -0.156947
 C            3.866719           -0.834003           -0.087584
 C            3.118635            0.280179            0.356872
 C            1.705666            0.101022            0.775725
 C            1.407613           -0.182217            2.107440
 C            2.431715           -0.282659            3.133238
 C            2.110065           -0.563583            4.421641
 C            0.734134           -0.771301            4.808243
 C           -0.259284           -0.688994            3.887273
 C            0.033061           -0.389896            2.495982
 C           -0.975323           -0.305788            1.549621
 C           -0.690562           -0.007109            0.190873
 C           -1.725095            0.084091           -0.792489
 C           -3.133092           -0.146639           -0.381871
 C           -3.703810           -1.435406           -0.481787
 C           -2.958300           -2.557240           -0.970232
 C           -3.520465           -3.811252           -1.061721
 C           -2.769307           -4.956486           -1.556368
 C           -3.337263           -6.184269           -1.632422
 C           -4.712776           -6.389515           -1.225563
 C           -5.459576           -5.357837           -0.763100
 C           -4.900906           -4.017240           -0.657764
 C           -5.639096           -2.953461           -0.189333
 C           -5.072005           -1.642476           -0.086457
 C           -5.832531           -0.564001            0.394493
 C           -5.277488            0.715215            0.499751
 C           -6.023980            1.837641            0.991347
 C           -5.437048            3.076006            1.083646
 C           -6.125296            4.256879            1.577641
 C           -5.490173            5.451257            1.648755
 C           -4.107074            5.589082            1.230246
 C           -3.410713            4.530117            0.758394
 C           -4.040368            3.212947            0.662177
 N           -3.321772            2.195209            0.198011
 C           -3.905890            0.932911            0.106164
 C           -1.429269            0.391495           -2.119450
 C           -2.454132            0.500290           -3.143377
 C           -2.135303            0.807635           -4.426519
 C           -0.761552            1.035933           -4.809077
 C            0.233087            0.942232           -3.890343
 C           -0.056350            0.615229           -2.504802
 C            0.953558            0.518598           -1.560901
 C            0.669923            0.207238           -0.204954
 H            5.011879            7.480468            1.164553
 H            2.676463            7.068376            1.804099
 H            1.689882            4.759818            1.662478
 H            6.715363            3.161695           -0.194518
 H            6.471145            5.619068            0.359403
 H            6.871393            0.733904           -0.714038
 H            7.025326           -1.649870           -1.219898
 H            7.196559           -4.071237           -1.733481
 H            6.120240           -6.322288           -1.823016
 H            3.775426           -6.623012           -1.143552
 H            2.417552           -4.681767           -0.351568
 H            2.252619           -2.270864            0.144214
 H            3.466959           -0.115671            2.833261
 H            2.873145           -0.637042            5.194193
 H            0.526299           -0.990850            5.853636
 H           -1.302652           -0.839917            4.160067
 H           -2.013988           -0.459473            1.847346
 H           -1.920825           -2.392613           -1.273025
 H           -1.737377           -4.784835           -1.862117
 H           -2.784930           -7.047966           -1.999329
 H           -5.119057           -7.396836           -1.306416
 H           -6.495342           -5.495277           -0.455431
 H           -6.676324           -3.089997            0.115060
 H           -6.868727           -0.728336            0.689247
 H           -7.061261            1.680854            1.287716
 H           -7.163549            4.139951            1.885936
 H           -5.993448            6.343396            2.019955
 H           -3.653388            6.577018            1.310862
 H           -2.369295            4.599783            0.434582
 H           -3.489472            0.333436           -2.843570
 H           -2.899625            0.892562           -5.196636
 H           -0.556788            1.285586           -5.848328
 H            1.274481            1.112579           -4.159369
 H            1.989948            0.695807           -1.853646

