96

 C          -13.702713            1.601804           -3.621056
 C          -14.304162            0.676616           -2.679098
 C          -13.558084            0.050039           -1.740651
 C          -12.118858            0.294243           -1.654653
 N          -11.417523           -0.340747           -0.717614
 C          -10.044534           -0.112533           -0.630470
 C           -9.312430           -0.787464            0.361917
 C           -7.929949           -0.588110            0.485845
 C           -7.162313           -1.265564            1.490133
 C           -5.805585           -1.066104            1.607371
 C           -5.008773           -1.746517            2.620140
 C           -3.674947           -1.538574            2.721130
 C           -2.999274           -0.623964            1.813994
 C           -1.535850           -0.437502            1.964949
 C           -1.038805            0.558268            2.803094
 C           -1.904981            1.434603            3.572890
 C           -1.390871            2.404017            4.371859
 C            0.037604            2.590535            4.479142
 C            0.889300            1.795866            3.782689
 C            0.388793            0.743725            2.914828
 C            1.249640           -0.068882            2.194965
 C            0.759921           -1.089564            1.337295
 C            1.641203           -1.921970            0.579269
 C            3.102618           -1.694452            0.687578
 C            3.732039           -0.786207           -0.103006
 C            5.161539           -0.552280            0.017707
 C            5.811348            0.371043           -0.769862
 C            7.219448            0.598709           -0.639500
 C            7.884156            1.542635           -1.438926
 C            9.261531            1.758913           -1.302286
 C            9.980200            2.711969           -2.095144
 C           11.332801            2.882188           -1.916374
 C           12.126536            3.828136           -2.681822
 C           13.457430            3.955017           -2.463556
 C           14.129503            3.150569           -1.460374
 C           13.448742            2.250841           -0.714192
 C           12.010226            2.069036           -0.903697
 N           11.374369            1.173894           -0.150452
 C           10.002352            0.996210           -0.325391
 C            9.339748            0.049540            0.475179
 C            7.960513           -0.160708            0.334765
 C            7.262748           -1.118166            1.142845
 C            5.908286           -1.318370            1.003340
 C            5.181242           -2.281592            1.820048
 C            3.847692           -2.461954            1.673369
 C            1.144474           -2.915855           -0.260628
 C            2.010442           -3.777233           -1.047427
 C            1.496250           -4.730329           -1.865467
 C            0.067676           -4.914787           -1.975690
 C           -0.783961           -4.136809           -1.260604
 C           -0.283266           -3.103049           -0.370640
 C           -1.144332           -2.299115            0.358521
 C           -0.654640           -1.281665            1.220569
 C           -3.694260            0.035088            0.850365
 C           -5.127656           -0.153065            0.700301
 C           -5.844608            0.506967           -0.271897
 C           -7.257010            0.315134           -0.412163
 C           -7.990623            0.987558           -1.402788
 C           -9.371949            0.793216           -1.531630
 C          -10.159680            1.457938           -2.527028
 C          -11.512923            1.228311           -2.606492
 C          -12.374378            1.865150           -3.587779
 H          -14.358500            2.072918           -4.351860
 H          -15.378106            0.506183           -2.756755
 H          -13.982706           -0.651182           -1.019535
 H           -9.837929           -1.469160            1.034087
 H           -7.684736           -1.946848            2.162511
 H           -5.529172           -2.429612            3.292100
 H           -3.067206           -2.042401            3.473251
 H           -2.982806            1.287600            3.485553
 H           -2.035642            3.064555            4.949961
 H            0.401349            3.383155            5.131368
 H            1.969389            1.923443            3.850461
 H            2.329204            0.074805            2.280295
 H            3.182743           -0.206542           -0.845660
 H            5.261545            0.950498           -1.511680
 H            7.320718            2.115258           -2.175967
 H            9.431402            3.293250           -2.836999
 H           11.610158            4.425719           -3.432305
 H           14.062807            4.660394           -3.031093
 H           15.201880            3.298760           -1.331735
 H           13.927316            1.631705            0.047243
 H            9.916514           -0.518683            1.208129
 H            7.836550           -1.686253            1.875844
 H            5.753303           -2.849224            2.554620
 H            3.291322           -3.176816            2.280203
 H            3.088202           -3.629988           -0.959268
 H            2.140470           -5.377845           -2.458675
 H           -0.296195           -5.691625           -2.646487
 H           -1.864101           -4.260890           -1.333177
 H           -2.223922           -2.441067            0.271560
 H           -3.196791            0.720893            0.163668
 H           -5.346511            1.192607           -0.957640
 H           -7.478447            1.670497           -2.080991
 H           -9.662463            2.144296           -3.213464
 H          -11.910471            2.557351           -4.289705

