96

 C           -5.697809            6.836036           -3.188074
 C           -4.383436            7.008329           -2.597365
 C           -3.748971            5.979251           -1.990335
 C           -4.376851            4.660094           -1.917352
 N           -3.720209            3.670255           -1.316256
 C           -4.310618            2.408393           -1.250676
 C           -3.605334            1.366622           -0.622477
 C           -4.157653            0.079586           -0.544758
 C           -3.452439           -1.001895            0.079315
 C           -3.988387           -2.268225            0.142221
 C           -5.303808           -2.519764           -0.426514
 C           -6.002583           -1.494431           -1.023286
 C           -5.458922           -0.172592           -1.106832
 C           -6.164324            0.871335           -1.727122
 C           -5.615966            2.157094           -1.814257
 C           -6.294595            3.248614           -2.448891
 C           -5.703905            4.488182           -2.514013
 C           -6.327724            5.637485           -3.147846
 C           -5.853550           -3.865647           -0.353034
 C           -5.158022           -4.871895            0.228054
 C           -3.850070           -4.632317            0.795160
 C           -3.286486           -3.394243            0.760680
 C           -1.943865           -3.185253            1.359833
 C           -1.818055           -2.979844            2.732406
 C           -2.967335           -2.881497            3.615807
 C           -2.812119           -2.704881            4.952679
 C           -1.493880           -2.601697            5.534598
 C           -0.388759           -2.671690            4.750167
 C           -0.501724           -2.865153            3.314813
 C            0.622438           -2.959197            2.510669
 C            0.513647           -3.164417            1.109794
 C            1.669372           -3.296221            0.278088
 C            3.012300           -3.317048            0.911704
 C            3.496361           -4.482878            1.419754
 C            4.800319           -4.540313            2.041089
 C            5.572072           -3.431071            2.131397
 C            5.113334           -2.154457            1.603492
 C            5.896271           -1.024577            1.685502
 C            5.449412            0.230638            1.162017
 C            6.249502            1.382693            1.237518
 C            5.803371            2.603140            0.715636
 C            6.588097            3.801993            0.765148
 C            6.101159            4.971625            0.232069
 C            6.840725            6.222679            0.242032
 C            6.313280            7.346240           -0.300402
 C            4.994068            7.334745           -0.905094
 C            4.253102            6.203782           -0.945769
 C            4.769464            4.957934           -0.378923
 N            4.013209            3.864372           -0.440949
 C            4.501069            2.672882            0.095829
 C            3.696538            1.522354            0.022187
 C            4.151116            0.301992            0.544010
 C            3.351961           -0.886334            0.473816
 C            3.801584           -2.085900            0.977854
 C            1.543389           -3.455274           -1.100518
 C            2.692809           -3.575335           -1.980864
 C            2.537544           -3.747122           -3.318347
 C            1.219133           -3.809990           -3.905452
 C            0.113486           -3.693349           -3.127342
 C            0.226640           -3.514644           -1.690081
 C           -0.897975           -3.419784           -0.886497
 C           -0.788958           -3.253277            0.519384
 H           -6.154069            7.704174           -3.662379
 H           -3.928343            7.997018           -2.662146
 H           -2.760180            6.078538           -1.537141
 H           -2.619304            1.575092           -0.199185
 H           -2.467101           -0.793945            0.504827
 H           -6.989550           -1.672627           -1.449334
 H           -7.150010            0.676998           -2.148955
 H           -7.281722            3.070501           -2.876397
 H           -7.314685            5.494040           -3.586602
 H           -6.840929           -4.028305           -0.783051
 H           -5.557024           -5.884091            0.287307
 H           -3.331363           -5.475981            1.251415
 H           -3.959407           -2.950169            3.166211
 H           -3.670581           -2.633567            5.619057
 H           -1.420906           -2.464705            6.612351
 H            0.613569           -2.588666            5.169248
 H            1.617198           -2.874271            2.954442
 H            2.914541           -5.403801            1.372268
 H            5.133223           -5.502410            2.429525
 H            6.556263           -3.456708            2.597296
 H            6.879608           -1.066342            2.153248
 H            7.230742            1.324816            1.707887
 H            7.572900            3.761033            1.231550
 H            7.829218            6.217289            0.700407
 H            6.858312            8.289566           -0.300094
 H            4.624337            8.271009           -1.323943
 H            3.257379            6.164517           -1.392638
 H            2.712766            1.593497           -0.449001
 H            2.367964           -0.815556            0.002832
 H            3.684957           -3.519085           -1.529494
 H            3.395955           -3.839322           -3.982270
 H            1.146185           -3.950792           -4.982759
 H           -0.889194           -3.731616           -3.552001
 H           -1.892792           -3.472062           -1.335178

