86

 C           -5.243442            5.497346            0.991739
 C           -6.077500            4.552138            0.524441
 C           -5.468784            3.222619            0.411153
 C           -6.036792            2.060988           -0.023476
 C           -5.253408            0.848355           -0.060265
 C           -5.822048           -0.353324           -0.504850
 C           -5.075060           -1.538825           -0.549604
 C           -3.699774           -1.527597           -0.132265
 C           -2.940224           -2.757086           -0.183911
 C           -3.548548           -3.884080           -0.626626
 S           -2.859907           -5.493928           -0.790025
 C           -4.372033           -6.175039           -1.403899
 C           -5.346599           -5.252206           -1.484631
 C           -4.936123           -3.912362           -1.051775
 C           -5.676874           -2.767489           -1.011661
 C           -3.123853           -0.320477            0.317417
 C           -1.703546           -0.301971            0.753801
 C           -1.379401           -0.559571            2.084607
 C           -2.385863           -0.858278            3.088695
 C           -2.038840           -1.102961            4.377824
 C           -0.653821           -1.072244            4.787535
 C            0.324132           -0.798798            3.887120
 C            0.004491           -0.531110            2.495580
 C            0.996315           -0.251761            1.569332
 C            0.684893            0.009874            0.208924
 C            1.703128            0.296447           -0.753372
 C            3.123317            0.317998           -0.316709
 C            3.878548           -0.873580           -0.347375
 C            3.304015           -2.124256           -0.791024
 C            4.079015           -3.235869           -0.794625
 S            3.631913           -4.866444           -1.277972
 C            5.241926           -5.507746           -0.925521
 C            6.076574           -4.556953           -0.470424
 C            5.467700           -3.226367           -0.372191
 C            6.036448           -2.059686            0.048032
 C            5.252955           -0.846905            0.071920
 C            5.822431            0.359691            0.502290
 C            5.075301            1.545375            0.535301
 C            3.699629            1.529814            0.119654
 C            2.940248            2.759932            0.159045
 C            3.549618            3.891740            0.588114
 S            2.861832            5.503676            0.733900
 C            4.375135            6.191343            1.338107
 C            5.349097            5.268872            1.428465
 C            4.937722            3.924429            1.011426
 C            5.677877            2.778847            0.983517
 C            1.379197            0.552109           -2.084557
 C            2.386056            0.845856           -3.089761
 C            2.039025            1.091970           -4.378557
 C            0.653422            1.068301           -4.786603
 C           -0.324932            0.798167           -3.885681
 C           -0.005006            0.527459           -2.494699
 C           -0.997139            0.249566           -1.568385
 C           -0.685530           -0.014120           -0.208339
 C           -3.879528            0.870339            0.361001
 C           -3.305463            2.115879            0.819970
 C           -4.080673            3.227121            0.835566
 S           -3.633902            4.851884            1.338692
 H           -5.437032            6.543450            1.167358
 H           -7.111839            4.706582            0.243181
 H           -7.074645            2.020816           -0.347494
 H           -6.865178           -0.366199           -0.822275
 H           -1.896189           -2.744457            0.135839
 H           -4.409694           -7.222278           -1.657681
 H           -6.357151           -5.430440           -1.830615
 H           -6.719678           -2.752622           -1.321630
 H           -3.429900           -0.879531            2.770803
 H           -2.789295           -1.327837            5.134679
 H           -0.426438           -1.274376            5.833117
 H            1.374178           -0.771475            4.177522
 H            2.042634           -0.230341            1.883875
 H            2.260260           -2.139673           -1.111483
 H            5.435349           -6.555856           -1.088783
 H            7.111190           -4.708057           -0.188333
 H            7.074770           -2.015764            0.370127
 H            6.866094            0.376080            0.817820
 H            1.895632            2.744021           -0.158504
 H            4.413532            7.241438            1.579764
 H            6.360176            5.450577            1.771389
 H            6.720896            2.766897            1.292999
 H            3.430540            0.861714           -2.772883
 H            2.789608            1.312823           -5.136478
 H            0.425932            1.272707           -5.831743
 H           -1.375354            0.775953           -4.174982
 H           -2.043628            0.230903           -1.882385
 H           -2.262217            2.127542            1.142312

