86

 C            5.711062            5.706455           -2.881730
 C            6.496881            4.911766           -2.134638
 C            5.834258            3.693517           -1.657464
 C            6.352462            2.693537           -0.887198
 C            5.524205            1.568015           -0.524977
 C            4.161073            1.510535           -0.976926
 C            3.637535            2.583941           -1.791953
 C            4.455036            3.618256           -2.106098
 S            4.083554            5.040039           -3.072980
 C            3.362103            0.413974           -0.621410
 C            3.866269           -0.631479            0.165681
 C            5.230469           -0.574121            0.617195
 C            6.028877            0.523901            0.263176
 C            5.770747           -1.639369            1.426670
 C            4.982058           -2.701202            1.759779
 C            5.328033           -3.877787            2.563626
 C            4.318323           -4.753246            2.711937
 S            2.849025           -4.223137            1.883487
 C            3.607619           -2.750355            1.300512
 C            3.046607           -1.772241            0.537398
 C            1.634934           -1.867557            0.096687
 C            1.321491           -2.473459           -1.118542
 C            2.336296           -2.998257           -2.016383
 C            1.995976           -3.588374           -3.190479
 C            0.610505           -3.711735           -3.580437
 C           -0.374886           -3.238707           -2.776226
 C           -0.062842           -2.597713           -1.510339
 C           -1.064470           -2.118389           -0.681748
 C           -0.762616           -1.492188            0.556738
 C           -1.790542           -1.005050            1.423724
 C           -3.207442           -1.197838            1.034697
 C           -3.882099           -2.327761            1.383508
 S           -3.276550           -3.699663            2.297579
 C           -4.821304           -4.554395            2.201348
 C           -5.746756           -3.854436            1.521970
 C           -5.267365           -2.561176            1.024029
 C           -5.949001           -1.623610            0.305086
 C           -5.285195           -0.405212           -0.090965
 C           -5.971715            0.570485           -0.829285
 C           -5.345226            1.761806           -1.222310
 C           -3.971971            1.984905           -0.861503
 C           -3.322179            3.212089           -1.264474
 C           -4.034507            4.120392           -1.974516
 S           -3.499355            5.680476           -2.586181
 C           -5.073473            6.037760           -3.309895
 C           -5.958022            5.045693           -3.108820
 C           -5.422710            3.912389           -2.347117
 C           -6.058602            2.762344           -1.980041
 C           -3.285185            1.009030           -0.124538
 C           -3.911178           -0.182166            0.270019
 C           -1.475815           -0.377432            2.627778
 C           -2.490947            0.136798            3.531327
 C           -2.149658            0.738754            4.699265
 C           -0.763031            0.885351            5.076927
 C            0.222379            0.420296            4.268092
 C           -0.090449           -0.231271            3.007999
 C            0.910674           -0.714745            2.181158
 C            0.608110           -1.353375            0.949436
 H            5.950258            6.648221           -3.348903
 H            7.531060            5.107397           -1.879225
 H            7.381696            2.719641           -0.534822
 H            2.603542            2.530087           -2.130105
 H            2.325374            0.371902           -0.965832
 H            7.062517            0.565112            0.607439
 H            6.805494           -1.571440            1.756364
 H            6.322370           -3.984805            2.978496
 H            4.307561           -5.687943            3.249308
 H            3.380678           -2.904616           -1.713250
 H            2.751522           -3.985427           -3.866926
 H            0.389306           -4.193853           -4.531281
 H           -1.425758           -3.326609           -3.050159
 H           -2.111172           -2.225285           -0.976788
 H           -4.913038           -5.523138            2.665749
 H           -6.764546           -4.171296            1.332501
 H           -6.988690           -1.768697            0.018888
 H           -7.013241            0.398775           -1.101785
 H           -2.281264            3.371069           -0.985743
 H           -5.210610            6.970708           -3.832566
 H           -6.983763            5.035041           -3.456203
 H           -7.097754            2.575735           -2.243507
 H           -2.240705            1.180490            0.149303
 H           -3.536546            0.019562            3.241084
 H           -2.905862            1.123810            5.381929
 H           -0.541139            1.375496            6.023540
 H            1.273777            0.516807            4.537302
 H            1.957261           -0.611503            2.478140

