80

 C            7.504828            1.525592           -7.278749
 C            7.759832            1.645520           -5.956362
 C            6.764214            1.267504           -4.956930
 C            7.005791            1.383146           -3.616611
 C            6.016062            1.006217           -2.630885
 C            6.266335            1.126067           -1.276806
 C            5.276693            0.745737           -0.327617
 C            5.344313            0.792509            1.060565
 S            3.897900            0.221232            1.739345
 C            3.138890           -0.100923            0.244430
 C            1.787325           -0.637641            0.174935
 C            1.578798           -2.018337            0.174234
 C            2.672017           -2.974119            0.207768
 C            2.435979           -4.310984            0.215633
 C            1.085136           -4.821422            0.192228
 C            0.029286           -3.969880            0.150214
 C            0.230509           -2.531215            0.130418
 C           -0.842365           -1.656704            0.066693
 C           -0.649917           -0.250530            0.031076
 C           -1.754372            0.657847           -0.059445
 C           -3.104509            0.120065           -0.145518
 C           -3.977833           -0.215605            0.888455
 C           -3.761985           -0.106656            2.289063
 C           -4.749463           -0.491547            3.175231
 C           -4.553154           -0.390675            4.604829
 C           -5.523167           -0.769504            5.489551
 C           -5.333721           -0.671544            6.934306
 C           -6.304856           -1.051858            7.794600
 C           -7.570512           -1.570946            7.304734
 C           -7.805295           -1.684877            5.978134
 C           -6.798730           -1.292126            4.995484
 C           -7.020174           -1.401249            3.651271
 C           -6.018978           -1.011681            2.682154
 C           -6.248889           -1.125847            1.324160
 C           -5.247304           -0.736278            0.391350
 C           -5.294472           -0.778363           -0.997707
 S           -3.840341           -0.199531           -1.653055
 C           -1.546142            2.038581           -0.056398
 C           -2.639533            2.993856           -0.096653
 C           -2.403848            4.330842           -0.102040
 C           -1.053382            4.841896           -0.068517
 C            0.002390            3.990546           -0.020464
 C           -0.198228            2.551820           -0.004906
 C            0.874575            1.677220            0.059358
 C            0.682534            0.270928            0.090875
 C            3.997823            0.228750           -0.803697
 C            3.760051            0.116128           -2.200254
 C            4.736261            0.491779           -3.102757
 C            4.517781            0.385881           -4.528592
 C            5.477520            0.752467           -5.429545
 C            5.265992            0.648264           -6.870668
 C            6.227665            1.015023           -7.747341
 H            8.240383            1.804609           -8.031503
 H            8.712116            2.026522           -5.589556
 H            7.958622            1.765066           -3.250934
 H            7.217421            1.509764           -0.912903
 H            6.174769            1.134954            1.652231
 H            3.690751           -2.582373            0.214947
 H            3.252370           -5.031616            0.236385
 H            0.947133           -5.901390            0.206474
 H           -0.997135           -4.335104            0.127920
 H           -1.861260           -2.050803            0.047333
 H           -2.806101            0.284564            2.638483
 H           -3.597061            0.001071            4.953313
 H           -4.379373           -0.280142            7.285352
 H           -6.173936           -0.983080            8.873230
 H           -8.314422           -1.861181            8.044898
 H           -8.748753           -2.071883            5.595314
 H           -7.964797           -1.787769            3.269636
 H           -7.192591           -1.512377            0.944506
 H           -6.114832           -1.121765           -1.602626
 H           -3.657988            2.601707           -0.111219
 H           -3.220550            5.050951           -0.128293
 H           -0.915672            5.921917           -0.080272
 H            1.028486            4.356272            0.009693
 H            1.893324            2.071600            0.082034
 H            2.796643           -0.270444           -2.533704
 H            3.553454            0.000397           -4.860856
 H            4.303114            0.263619           -7.205359
 H            6.080454            0.941343           -8.823497

