80

 C           -5.076594            0.664927            2.255142
 C           -3.759959            0.947890            2.141702
 C           -3.072870            0.779177            0.866866
 C           -1.628595            1.110078            0.803256
 C           -1.222437            2.402074            0.476495
 C           -2.167297            3.474485            0.215429
 C           -1.741164            4.719530           -0.116847
 C           -0.330431            5.013284           -0.217020
 C            0.592278            4.048017            0.024612
 C            0.187128            2.699580            0.382325
 C            1.121745            1.704851            0.620030
 C            0.726009            0.383346            0.956589
 C            1.684433           -0.653070            1.183896
 C            3.125556           -0.339693            1.027452
 C            3.744768           -0.463186           -0.172944
 C            5.157348           -0.141017           -0.328647
 C            5.791911           -0.253537           -1.534566
 C            7.192360            0.068908           -1.686662
 C            7.824521           -0.047988           -2.911877
 C            9.201444            0.273118           -3.039277
 C           10.001229            0.217702           -4.179414
 S           11.576023            0.702657           -3.800125
 C           11.278118            0.998447           -2.161927
 C            9.943181            0.727264           -1.866124
 C            9.273543            0.840266           -0.618721
 C            7.930494            0.522627           -0.516283
 C            7.223933            0.630837            0.741116
 C            5.897090            0.317855            0.847767
 C            5.173215            0.426265            2.111658
 C            3.861121            0.115060            2.201286
 C            1.279270           -1.941530            1.523539
 C            2.224441           -3.017700            1.767798
 C            1.798640           -4.267727            2.080791
 C            0.387959           -4.561376            2.182940
 C           -0.534846           -3.589189            1.971634
 C           -0.130250           -2.235589            1.632550
 C           -1.065415           -1.239371            1.403817
 C           -0.670437            0.080681            1.059576
 C           -3.740753            0.333333           -0.226128
 C           -5.161026            0.013625           -0.162643
 C           -5.846632           -0.436053           -1.256806
 C           -7.256712           -0.745766           -1.192726
 C           -7.941522           -1.196917           -2.307073
 C           -9.327513           -1.492288           -2.223317
 C          -10.176981           -1.950953           -3.228559
 S          -11.740261           -2.146280           -2.614641
 C          -11.373348           -1.648071           -1.040708
 C          -10.022487           -1.316021           -0.951099
 C           -9.299147           -0.852361            0.179913
 C           -7.948279           -0.570068            0.076622
 C           -7.187871           -0.097007            1.212468
 C           -5.853739            0.186636            1.114807
 H           -5.603993            0.783627            3.201614
 H           -3.169798            1.307885            2.984448
 H           -3.230885            3.243804            0.295327
 H           -2.444500            5.526492           -0.316397
 H           -0.039319            6.025892           -0.490993
 H            1.660338            4.251054           -0.045853
 H            2.187531            1.932118            0.545930
 H            3.205423           -0.804055           -1.057325
 H            5.253876           -0.591388           -2.420309
 H            7.282416           -0.385610           -3.793022
 H            9.691652           -0.083750           -5.163942
 H           12.028940            1.344494           -1.474516
 H            9.838072            1.179996            0.247345
 H            7.789874            0.973524            1.607439
 H            5.736288            0.770343            2.979246
 H            3.310225            0.190644            3.138731
 H            3.287855           -2.785403            1.690197
 H            2.501643           -5.079275            2.262135
 H            0.096996           -5.580395            2.432340
 H           -1.602680           -3.792300            2.044698
 H           -2.131006           -1.465057            1.484228
 H           -3.237313            0.202053           -1.184575
 H           -5.344126           -0.572963           -2.214414
 H           -7.434724           -1.331818           -3.260669
 H           -9.907629           -2.157686           -4.248755
 H          -12.097729           -1.604470           -0.247428
 H           -9.829254           -0.725177            1.121652
 H           -7.719263            0.027264            2.156027

