50

 C           -5.516111           -1.831393            0.392532
 C           -4.883852           -1.306883            1.524586
 C           -3.688951           -0.594233            1.395955
 C           -3.122500           -0.404427            0.126305
 C           -1.853292            0.351320           -0.014628
 C           -1.876368            1.732652           -0.194473
 C           -3.114167            2.491176           -0.254056
 C           -3.105036            3.836873           -0.430678
 C           -1.858425            4.554267           -0.564294
 C           -0.674735            3.892176           -0.515536
 C           -0.631580            2.452052           -0.328955
 C            0.572204            1.768309           -0.279403
 C            0.615591            0.360299           -0.098272
 C            1.854140           -0.352426           -0.048387
 C            3.122958            0.403942           -0.189409
 C            3.769847            0.908124            0.949150
 C            4.963088            1.621962            0.811948
 C            5.513883            1.835378           -0.455894
 C            4.868338            1.332958           -1.590324
 C            3.674693            0.618224           -1.461608
 C            1.877282           -1.734087            0.128914
 C            3.114870           -2.493307            0.182173
 C            3.105798           -3.839462            0.356070
 C            1.859264           -4.556058            0.493949
 C            0.675832           -3.893493            0.450994
 C            0.632579           -2.453099            0.265839
 C           -0.571318           -1.769250            0.219156
 C           -0.614800           -0.361393            0.037061
 C           -3.755630           -0.931223           -1.009595
 C           -4.950367           -1.642587           -0.872591
 H           -6.447417           -2.385040            0.495845
 H           -5.323408           -1.453590            2.509887
 H           -3.194175           -0.185785            2.276268
 H           -4.050778            1.940412           -0.152152
 H           -4.030142            4.409100           -0.476339
 H           -1.903291            5.632819           -0.703995
 H            0.274829            4.417125           -0.614502
 H            1.512330            2.315259           -0.381177
 H            3.338156            0.741864            1.935287
 H            5.464696            2.013012            1.695763
 H            6.443865            2.391328           -0.559407
 H            5.296141            1.498734           -2.577813
 H            3.169536            0.227238           -2.343858
 H            4.051317           -1.942847            0.076918
 H            4.030572           -4.412558            0.396123
 H            1.904140           -5.634939            0.631885
 H           -0.273652           -4.417978            0.553232
 H           -1.511306           -2.315871            0.323406
 H           -3.312662           -0.783995           -1.993800
 H           -5.441487           -2.050680           -1.754498

