78

 C            7.524420           -3.199128            1.775426
 C            6.159309           -3.115046            2.058200
 C            5.393079           -2.058649            1.540743
 C            6.020184           -1.075197            0.726645
 C            7.411051           -1.171101            0.443877
 C            8.150034           -2.240059            0.976153
 C            8.025816           -0.154015           -0.392567
 C            7.300625            0.872147           -0.898239
 C            5.879252            0.998323           -0.625344
 C            5.118072            2.058607           -1.143195
 C            3.756710            2.152098           -0.861929
 C            3.118859            1.192739           -0.060569
 C            1.667360            1.350597            0.205477
 C            1.236174            2.079443            1.312343
 C            2.160439            2.674751            2.262613
 C            1.710481            3.387192            3.326782
 C            0.294469            3.572102            3.544851
 C           -0.609694            3.035746            2.686578
 C           -0.178880            2.264903            1.532847
 C           -1.094501            1.718647            0.648150
 C           -0.673615            0.968577           -0.482050
 C           -1.612533            0.410592           -1.405188
 C           -3.060334            0.662303           -1.197387
 C           -3.628323            1.801940           -1.787410
 C           -4.981005            2.093278           -1.624610
 C           -5.803328            1.246791           -0.863722
 C           -7.216878            1.522634           -0.672611
 C           -8.000779            0.700232            0.064763
 C           -7.459561           -0.492585            0.694296
 C           -8.259782           -1.354342            1.461676
 C           -7.704294           -2.491816            2.051387
 C           -6.350026           -2.792604            1.890322
 C           -5.523760           -1.950799            1.128910
 C           -6.078769           -0.789380            0.523915
 C           -5.240792            0.087737           -0.261899
 C           -3.858689           -0.209585           -0.429466
 C           -3.325088           -1.405472            0.201543
 C           -4.110538           -2.227959            0.936782
 C           -1.182143           -0.329567           -2.504649
 C           -2.106563           -0.916471           -3.459712
 C           -1.657165           -1.624161           -4.527263
 C           -0.241474           -1.814772           -4.742336
 C            0.662948           -1.288121           -3.878124
 C            0.232635           -0.523225           -2.720198
 C            1.148710            0.022988           -1.835634
 C            0.728202            0.774974           -0.706488
 C            3.853637            0.114490            0.473151
 C            5.245132            0.019369            0.188010
 C            3.244798           -0.909124            1.306453
 C            3.970706           -1.935399            1.810306
 H            8.108218           -4.024077            2.183367
 H            5.686922           -3.871724            2.682438
 H            9.214869           -2.322070            0.764723
 H            9.092134           -0.248851           -0.596782
 H            7.760621            1.635473           -1.525961
 H            5.594135            2.813132           -1.768212
 H            3.174179            2.980729           -1.267887
 H            3.228701            2.528516            2.091222
 H            2.397850            3.837251            4.041777
 H           -0.016381            4.151254            4.412983
 H           -1.681505            3.167173            2.832903
 H           -2.164975            1.862868            0.814047
 H           -2.997696            2.466092           -2.380765
 H           -5.402418            2.983074           -2.090645
 H           -7.621955            2.417136           -1.145898
 H           -9.061249            0.906638            0.208286
 H           -9.317466           -1.135096            1.598068
 H           -8.335311           -3.153350            2.644607
 H           -5.932948           -3.683771            2.356476
 H           -2.262815           -1.616275            0.058655
 H           -3.707059           -3.124155            1.408061
 H           -3.174710           -0.769195           -3.288344
 H           -2.344632           -2.065418           -5.247486
 H            0.068964           -2.389610           -5.613431
 H            1.734616           -1.419175           -4.025506
 H            2.219087           -0.121234           -2.001733
 H            2.175608           -0.818439            1.511281
 H            3.510532           -2.701822            2.433849

