86

 C           -7.530966           -2.432120            3.421968
 C           -6.248314           -2.631814            4.050205
 C           -5.102407           -2.263361            3.417014
 C           -5.143758           -1.659650            2.100952
 C           -3.983201           -1.250424            1.443916
 C           -4.024200           -0.652349            0.165333
 C           -5.283552           -0.643483           -0.523958
 C           -6.468329           -0.989412            0.164169
 C           -6.421292           -1.484303            1.464630
 C           -7.616184           -1.879574            2.182480
 C           -5.301118           -0.387273           -1.925644
 C           -4.111132           -0.397946           -2.626707
 C           -4.096963           -0.396709           -4.080835
 C           -2.945144           -0.600787           -4.767102
 C           -1.712413           -0.838653           -4.053906
 C           -1.668135           -0.740107           -2.699815
 C           -2.846054           -0.410801           -1.917732
 C           -2.836900           -0.179574           -0.527916
 C           -1.720412            0.453763            0.184986
 C           -1.703059            0.687284            1.573261
 C           -2.875031            1.016890            2.364031
 C           -2.816850            1.125666            3.716606
 C           -1.576887            0.896164            4.420512
 C           -0.431404            0.687400            3.724917
 C           -0.431539            0.677674            2.271003
 C            0.752460            0.660337            1.559837
 C            0.730648            0.912705            0.157045
 C            1.912865            1.247496           -0.557110
 C            3.232353            1.119320            0.112497
 C            3.778146            2.200715            0.803267
 C            3.093509            3.477169            0.915638
 C            3.648930            4.515728            1.590556
 C            4.941775            4.377324            2.219344
 C            5.621446            3.204831            2.145664
 C            5.070315            2.064588            1.434239
 C            5.758650            0.864844            1.350544
 C            5.215095           -0.245489            0.652717
 C            5.921708           -1.475530            0.565091
 C            5.391543           -2.559639           -0.116108
 C            6.097588           -3.825082           -0.216501
 C            5.556458           -4.873295           -0.887980
 C            4.262490           -4.754608           -1.520595
 C            3.564338           -3.592220           -1.454703
 C            4.098100           -2.440615           -0.748636
 C            3.401518           -1.244641           -0.669406
 C            3.932838           -0.123807            0.024535
 C            1.840671            1.741507           -1.865804
 C            3.016416            2.109882           -2.628330
 C            2.902611            2.666883           -3.863451
 C            1.605066            2.900916           -4.445787
 C            0.474858            2.552017           -3.775149
 C            0.549436            1.938582           -2.464890
 C           -0.600630            1.538175           -1.786062
 C           -0.537338            0.929715           -0.514888
 H           -8.421460           -2.737625            3.969212
 H           -6.230139           -3.082869            5.040570
 H           -4.126816           -2.404488            3.881611
 H           -3.013774           -1.430746            1.917163
 H           -7.423010           -0.905345           -0.353257
 H           -8.576799           -1.723340            1.694735
 H           -6.254335           -0.259400           -2.433128
 H           -5.048350           -0.255438           -4.591311
 H           -2.920262           -0.615719           -5.855156
 H           -0.831778           -1.114363           -4.631517
 H           -0.748290           -0.966989           -2.155758
 H           -3.801724            1.235675            1.827330
 H           -3.693311            1.403868            4.300310
 H           -1.591446            0.920656            5.508300
 H            0.525755            0.550451            4.227441
 H            1.710545            0.526540            2.064132
 H            2.116396            3.572141            0.437449
 H            3.139338            5.474132            1.676053
 H            5.346208            5.238522            2.748963
 H            6.596863            3.082790            2.614108
 H            6.734867            0.759995            1.822802
 H            6.896086           -1.553362            1.046236
 H            7.071488           -3.899570            0.264907
 H            6.076522           -5.826745           -0.968925
 H            3.872014           -5.624297           -2.046223
 H            2.587560           -3.488240           -1.926091
 H            2.423461           -1.150682           -1.146342
 H            3.993795            1.927946           -2.177829
 H            3.781979            2.948633           -4.440446
 H            1.561918            3.359033           -5.432263
 H           -0.513787            2.714824           -4.203130
 H           -1.578336            1.728905           -2.237891

