86

 C           12.680793           -0.400968           -0.724544
 C           11.743149           -0.669232            0.219624
 C           10.343772           -0.355642           -0.008758
 C            9.370985           -0.621043            0.942729
 C            8.006934           -0.305963            0.702535
 C            7.001784           -0.570998            1.671461
 C            5.674647           -0.254996            1.428514
 C            4.633105           -0.515674            2.407024
 C            3.339261           -0.196647            2.155427
 C            2.966661            0.417792            0.895322
 C            1.540114            0.758032            0.675971
 C            1.059891            2.015817            1.034432
 C            1.903897            3.027601            1.646869
 C            1.408407            4.246456            1.980434
 C            0.023620            4.572784            1.729732
 C           -0.806444            3.661546            1.161953
 C           -0.326036            2.340776            0.793631
 C           -1.166720            1.401536            0.219139
 C           -0.696180            0.111560           -0.143590
 C           -1.557965           -0.864581           -0.733392
 C           -2.983382           -0.518869           -0.951669
 C           -3.357300            0.080756           -2.218520
 C           -4.646731            0.423715           -2.461307
 C           -5.681968            0.205591           -1.465860
 C           -7.002001            0.560326           -1.693683
 C           -8.000168            0.340909           -0.706310
 C           -9.355963            0.701731           -0.928295
 C          -10.321570            0.482934            0.042166
 C          -11.712253            0.844972           -0.166895
 C          -12.642767            0.622942            0.796126
 C          -12.270228            0.019695            2.055544
 C          -10.982981           -0.336064            2.298446
 C           -9.949012           -0.120856            1.301386
 C           -8.628807           -0.477681            1.528886
 C           -7.630686           -0.259026            0.541847
 C           -6.274534           -0.619593            0.763404
 C           -5.309125           -0.397301           -0.206325
 C           -3.919712           -0.751030            0.008730
 C           -1.078210           -2.122280           -1.091520
 C           -1.922550           -3.133706           -1.703719
 C           -1.427676           -4.352970           -2.036668
 C           -0.043096           -4.679912           -1.785330
 C            0.787459           -3.768836           -1.217749
 C            0.307759           -2.447590           -0.850133
 C            1.148984           -1.508392           -0.276045
 C            0.678614           -0.218314            0.086756
 C            3.906541            0.677483           -0.054511
 C            5.301239            0.352284            0.171236
 C            6.272455            0.613514           -0.782854
 C            7.636349            0.295077           -0.544752
 C            8.641648            0.560195           -1.512923
 C            9.970151            0.249127           -1.267170
 C           11.011952            0.514706           -2.243702
 C           12.307311            0.203815           -1.982912
 H           13.732567           -0.631594           -0.563551
 H           12.009043           -1.125325            1.172300
 H            9.643407           -1.077461            1.893976
 H            7.293194           -1.029601            2.616074
 H            4.930832           -0.974912            3.349475
 H            2.547688           -0.386789            2.880112
 H            2.949325            2.772984            1.830007
 H            2.035802            5.007409            2.442603
 H           -0.325205            5.565675            2.009192
 H           -1.853546            3.889953            0.964922
 H           -2.214760            1.650381            0.037890
 H           -2.570381            0.240956           -2.955425
 H           -4.945252            0.872154           -3.408691
 H           -7.292783            1.016041           -2.639876
 H           -9.627651            1.156305           -1.880631
 H          -11.977536            1.298593           -1.120913
 H          -13.688024            0.890085            0.649845
 H          -13.053482           -0.137327            2.795489
 H          -10.686862           -0.791260            3.242683
 H           -8.338427           -0.933426            2.475098
 H           -6.001740           -1.076642            1.714509
 H           -3.650116           -1.204730            0.962649
 H           -2.967862           -2.878571           -1.886765
 H           -2.055161           -5.113856           -2.498587
 H            0.305151           -5.673218           -2.063973
 H            1.834264           -3.997988           -1.020110
 H            2.197056           -1.756936           -0.094914
 H            3.636876            1.137321           -1.005443
 H            5.998724            1.071182           -1.733380
 H            8.350345            1.015696           -2.458959
 H           10.715070            0.970450           -3.187426
 H           13.096325            0.399136           -2.707468

