86

 C            5.882487           -1.995106            3.619582
 C            4.478767           -1.934348            3.956640
 C            3.567322           -1.510494            3.043753
 C            3.960605           -1.076854            1.714803
 C            5.385201           -0.943949            1.467491
 C            6.316032           -1.518400            2.426721
 C            5.836507           -0.290551            0.339419
 C            4.915763            0.473161           -0.439215
 C            5.372369            1.412316           -1.388468
 C            4.495981            2.329002           -1.967780
 C            4.935171            3.310222           -2.937957
 C            4.067888            4.235149           -3.431165
 C            2.693183            4.257546           -2.998578
 C            2.237748            3.348099           -2.095066
 C            3.120185            2.335569           -1.555073
 C            2.664389            1.368286           -0.656475
 C            3.511111            0.353165           -0.166876
 C            3.051248           -0.720418            0.701038
 C            1.740780           -1.363136            0.553878
 C            1.340129           -2.462354            1.335407
 C            2.242891           -3.493747            1.815509
 C            1.820900           -4.482842            2.644234
 C            0.450970           -4.525145            3.102539
 C           -0.454800           -3.640996            2.617162
 C           -0.069176           -2.636466            1.638224
 C           -1.016011           -1.853154            1.011926
 C           -0.640294           -1.065294           -0.118196
 C           -1.610133           -0.505335           -0.988993
 C           -3.044581           -0.541906           -0.606978
 C           -3.574695            0.517875            0.192828
 C           -2.771313            1.598898            0.647101
 C           -3.304218            2.619252            1.419743
 C           -2.493144            3.728300            1.890949
 C           -3.035368            4.717438            2.646181
 C           -4.436481            4.689904            2.999847
 C           -5.235759            3.674647            2.583999
 C           -4.704461            2.591974            1.774437
 C           -5.499906            1.544163            1.339127
 C           -4.962843            0.492813            0.547849
 C           -5.778571           -0.580306            0.102645
 C           -5.254804           -1.605410           -0.668588
 C           -6.084059           -2.705649           -1.129217
 C           -5.562557           -3.703902           -1.886491
 C           -4.164829           -3.694321           -2.250151
 C           -3.351273           -2.687156           -1.842450
 C           -3.857406           -1.591632           -1.033494
 C           -1.231148            0.039861           -2.224844
 C           -2.183590            0.623180           -3.146257
 C           -1.789697            1.067427           -4.370309
 C           -0.411393            0.969421           -4.777448
 C            0.519860            0.442875           -3.937182
 C            0.147768           -0.024221           -2.618333
 C            1.102478           -0.520788           -1.728360
 C            0.755185           -0.936484           -0.428632
 H            6.568798           -2.411759            4.354723
 H            4.182440           -2.222112            4.963744
 H            2.509752           -1.427744            3.308407
 H            7.371496           -1.522084            2.158606
 H            6.890276           -0.286985            0.071268
 H            6.432063            1.441249           -1.637927
 H            5.976654            3.283092           -3.253907
 H            4.385078            4.978355           -4.161177
 H            2.036329            5.017537           -3.418494
 H            1.198768            3.346010           -1.766011
 H            1.631315            1.420409           -0.303472
 H            3.268867           -3.480613            1.438127
 H            2.493309           -5.274145            2.972040
 H            0.174680           -5.292643            3.823117
 H           -1.501387           -3.668932            2.919445
 H           -2.061766           -1.876259            1.321449
 H           -1.713216            1.615448            0.377317
 H           -1.438513            3.735069            1.617489
 H           -2.436754            5.553230            3.005164
 H           -4.823041            5.506777            3.607571
 H           -6.293029            3.640218            2.843005
 H           -6.556946            1.513947            1.600919
 H           -6.832687           -0.585736            0.377883
 H           -7.135340           -2.697378           -0.845225
 H           -6.175156           -4.532373           -2.238797
 H           -3.790344           -4.516819           -2.857540
 H           -2.293086           -2.671729           -2.111714
 H           -3.225442            0.691163           -2.827973
 H           -2.500889            1.505212           -5.069191
 H           -0.142450            1.330173           -5.769034
 H            1.568679            0.369856           -4.224753
 H            2.140632           -0.611013           -2.060425

