
     RDKit          3D

104118  0  0  0  0  0  0  0  0999 V2000
    7.3593   -5.3783    4.5816 C   0  0  0  0  0  0  0  0  0  0  0  0
    7.7598   -5.6905    3.2866 C   0  0  0  0  0  0  0  0  0  0  0  0
    7.1339   -5.0804    2.1984 C   0  0  0  0  0  0  0  0  0  0  0  0
    6.0987   -4.1494    2.3915 C   0  0  0  0  0  0  0  0  0  0  0  0
    5.4553   -3.5235    1.3068 C   0  0  0  0  0  0  0  0  0  0  0  0
    4.4076   -2.5800    1.4691 C   0  0  0  0  0  0  0  0  0  0  0  0
    4.0232   -2.2848    2.7997 C   0  0  0  0  0  0  0  0  0  0  0  0
    4.6622   -2.9067    3.8866 C   0  0  0  0  0  0  0  0  0  0  0  0
    5.6951   -3.8351    3.7008 C   0  0  0  0  0  0  0  0  0  0  0  0
    6.3329   -4.4560    4.7883 C   0  0  0  0  0  0  0  0  0  0  0  0
    2.9986   -1.3668    3.0412 C   0  0  0  0  0  0  0  0  0  0  0  0
    2.3449   -0.7350    1.9877 C   0  0  0  0  0  0  0  0  0  0  0  0
    2.6982   -1.0002    0.6619 C   0  0  0  0  0  0  0  0  0  0  0  0
    2.0202   -0.3424   -0.3805 C   0  0  0  0  0  0  0  0  0  0  0  0
    2.3188   -0.5561   -1.7437 C   0  0  0  0  0  0  0  0  0  0  0  0
    1.6423    0.0975   -2.8168 C   0  0  0  0  0  0  0  0  0  0  0  0
    0.5473    1.0658   -2.5921 C   0  0  0  0  0  0  0  0  0  0  0  0
    0.8821    2.4072   -2.3189 C   0  0  0  0  0  0  0  0  0  0  0  0
   -0.0994    3.3846   -2.0902 C   0  0  0  0  0  0  0  0  0  0  0  0
    0.2435    4.7179   -1.8100 C   0  0  0  0  0  0  0  0  0  0  0  0
   -0.7398    5.6948   -1.5790 C   0  0  0  0  0  0  0  0  0  0  0  0
   -0.3981    7.0284   -1.2972 C   0  0  0  0  0  0  0  0  0  0  0  0
   -1.3818    8.0046   -1.0648 C   0  0  0  0  0  0  0  0  0  0  0  0
   -1.0392    9.3378   -0.7819 C   0  0  0  0  0  0  0  0  0  0  0  0
   -2.0227   10.3136   -0.5494 C   0  0  0  0  0  0  0  0  0  0  0  0
   -1.6810   11.6466   -0.2663 C   0  0  0  0  0  0  0  0  0  0  0  0
   -2.6702   12.6043   -0.0378 C   0  0  0  0  0  0  0  0  0  0  0  0
   -4.0126   12.2423   -0.0893 C   0  0  0  0  0  0  0  0  0  0  0  0
   -4.3680   10.9221   -0.3692 C   0  0  0  0  0  0  0  0  0  0  0  0
   -3.3841    9.9466   -0.6015 C   0  0  0  0  0  0  0  0  0  0  0  0
   -3.7255    8.6137   -0.8845 C   0  0  0  0  0  0  0  0  0  0  0  0
   -2.7409    7.6382   -1.1166 C   0  0  0  0  0  0  0  0  0  0  0  0
   -3.0824    6.3049   -1.3993 C   0  0  0  0  0  0  0  0  0  0  0  0
   -2.0985    5.3288   -1.6308 C   0  0  0  0  0  0  0  0  0  0  0  0
   -2.4405    3.9953   -1.9123 C   0  0  0  0  0  0  0  0  0  0  0  0
   -1.4567    3.0193   -2.1419 C   0  0  0  0  0  0  0  0  0  0  0  0
   -1.7977    1.6863   -2.4207 C   0  0  0  0  0  0  0  0  0  0  0  0
   -0.8178    0.6982   -2.6431 C   0  0  0  0  0  0  0  0  0  0  0  0
   -1.2602   -0.6850   -2.9230 C   0  0  0  0  0  0  0  0  0  0  0  0
   -1.5948   -1.6070   -1.8859 C   0  0  0  0  0  0  0  0  0  0  0  0
   -1.5475   -1.2940   -0.5100 C   0  0  0  0  0  0  0  0  0  0  0  0
   -1.8785   -2.2202    0.4961 C   0  0  0  0  0  0  0  0  0  0  0  0
   -1.8078   -1.8344    1.8374 C   0  0  0  0  0  0  0  0  0  0  0  0
   -2.1308   -2.7262    2.8557 C   0  0  0  0  0  0  0  0  0  0  0  0
   -2.5317   -4.0316    2.5626 C   0  0  0  0  0  0  0  0  0  0  0  0
   -2.8494   -4.9080    3.6150 C   0  0  0  0  0  0  0  0  0  0  0  0
   -3.2562   -6.2275    3.3773 C   0  0  0  0  0  0  0  0  0  0  0  0
   -3.5733   -7.1024    4.4304 C   0  0  0  0  0  0  0  0  0  0  0  0
   -3.9760   -8.4132    4.1722 C   0  0  0  0  0  0  0  0  0  0  0  0
   -4.0663   -8.8644    2.8596 C   0  0  0  0  0  0  0  0  0  0  0  0
   -3.7540   -8.0048    1.8052 C   0  0  0  0  0  0  0  0  0  0  0  0
   -3.3471   -6.6818    2.0500 C   0  0  0  0  0  0  0  0  0  0  0  0
   -3.0279   -5.7996    1.0000 C   0  0  0  0  0  0  0  0  0  0  0  0
   -2.6142   -4.4591    1.2150 C   0  0  0  0  0  0  0  0  0  0  0  0
   -2.2815   -3.5313    0.1605 C   0  0  0  0  0  0  0  0  0  0  0  0
   -2.3309   -3.8373   -1.2225 C   0  0  0  0  0  0  0  0  0  0  0  0
   -2.0032   -2.9113   -2.2326 C   0  0  0  0  0  0  0  0  0  0  0  0
   -2.0853   -3.2810   -3.5842 C   0  0  0  0  0  0  0  0  0  0  0  0
   -1.7760   -2.3769   -4.5955 C   0  0  0  0  0  0  0  0  0  0  0  0
   -1.3704   -1.0889   -4.2665 C   0  0  0  0  0  0  0  0  0  0  0  0
    2.0373   -0.1640   -4.1420 C   0  0  0  0  0  0  0  0  0  0  0  0
    3.0582   -1.0654   -4.4199 C   0  0  0  0  0  0  0  0  0  0  0  0
    3.7069   -1.7146   -3.3743 C   0  0  0  0  0  0  0  0  0  0  0  0
    3.3522   -1.4690   -2.0385 C   0  0  0  0  0  0  0  0  0  0  0  0
    4.0275   -2.1277   -0.9921 C   0  0  0  0  0  0  0  0  0  0  0  0
    3.7302   -1.9212    0.3782 C   0  0  0  0  0  0  0  0  0  0  0  0
    7.8442   -5.8513    5.4314 H   0  0  0  0  0  0  0  0  0  0  0  0
    8.5587   -6.4083    3.1210 H   0  0  0  0  0  0  0  0  0  0  0  0
    7.4612   -5.3378    1.1936 H   0  0  0  0  0  0  0  0  0  0  0  0
    5.7907   -3.7902    0.3084 H   0  0  0  0  0  0  0  0  0  0  0  0
    4.3490   -2.6634    4.9008 H   0  0  0  0  0  0  0  0  0  0  0  0
    6.0323   -4.2239    5.8075 H   0  0  0  0  0  0  0  0  0  0  0  0
    2.6943   -1.1315    4.0592 H   0  0  0  0  0  0  0  0  0  0  0  0
    1.5503   -0.0281    2.2172 H   0  0  0  0  0  0  0  0  0  0  0  0
    1.2323    0.3609   -0.1176 H   0  0  0  0  0  0  0  0  0  0  0  0
    1.9352    2.6853   -2.2807 H   0  0  0  0  0  0  0  0  0  0  0  0
    1.2944    4.9999   -1.7702 H   0  0  0  0  0  0  0  0  0  0  0  0
    0.6524    7.3116   -1.2579 H   0  0  0  0  0  0  0  0  0  0  0  0
    0.0107    9.6225   -0.7422 H   0  0  0  0  0  0  0  0  0  0  0  0
   -0.6372   11.9493   -0.2216 H   0  0  0  0  0  0  0  0  0  0  0  0
   -2.3912   13.6319    0.1801 H   0  0  0  0  0  0  0  0  0  0  0  0
   -4.7845   12.9866    0.0884 H   0  0  0  0  0  0  0  0  0  0  0  0
   -5.4228   10.6588   -0.4051 H   0  0  0  0  0  0  0  0  0  0  0  0
   -4.7763    8.3324   -0.9250 H   0  0  0  0  0  0  0  0  0  0  0  0
   -4.1327    6.0211   -1.4400 H   0  0  0  0  0  0  0  0  0  0  0  0
   -3.4909    3.7117   -1.9526 H   0  0  0  0  0  0  0  0  0  0  0  0
   -2.8484    1.3996   -2.4628 H   0  0  0  0  0  0  0  0  0  0  0  0
   -1.2428   -0.2939   -0.2074 H   0  0  0  0  0  0  0  0  0  0  0  0
   -1.4973   -0.8271    2.1069 H   0  0  0  0  0  0  0  0  0  0  0  0
   -2.0628   -2.3853    3.8868 H   0  0  0  0  0  0  0  0  0  0  0  0
   -2.7783   -4.5560    4.6430 H   0  0  0  0  0  0  0  0  0  0  0  0
   -3.5079   -6.7666    5.4629 H   0  0  0  0  0  0  0  0  0  0  0  0
   -4.2183   -9.0795    4.9958 H   0  0  0  0  0  0  0  0  0  0  0  0
   -4.3794   -9.8845    2.6539 H   0  0  0  0  0  0  0  0  0  0  0  0
   -3.8307   -8.3768    0.7859 H   0  0  0  0  0  0  0  0  0  0  0  0
   -3.1075   -6.1831   -0.0134 H   0  0  0  0  0  0  0  0  0  0  0  0
   -2.6367   -4.8310   -1.5390 H   0  0  0  0  0  0  0  0  0  0  0  0
   -2.3980   -4.2856   -3.8618 H   0  0  0  0  0  0  0  0  0  0  0  0
   -1.8492   -2.6771   -5.6370 H   0  0  0  0  0  0  0  0  0  0  0  0
   -1.1316   -0.3901   -5.0656 H   0  0  0  0  0  0  0  0  0  0  0  0
    1.5377    0.3394   -4.9673 H   0  0  0  0  0  0  0  0  0  0  0  0
    3.3472   -1.2636   -5.4482 H   0  0  0  0  0  0  0  0  0  0  0  0
    4.5018   -2.4186   -3.6119 H   0  0  0  0  0  0  0  0  0  0  0  0
    4.8153   -2.8232   -1.2690 H   0  0  0  0  0  0  0  0  0  0  0  0
  1  2  4  0
  2  3  4  0
  3  4  4  0
  4  5  4  0
  5  6  4  0
  6  7  4  0
  7  8  4  0
  8  9  4  0
  9 10  4  0
  7 11  4  0
 11 12  4  0
 12 13  4  0
 13 14  4  0
 14 15  4  0
 15 16  4  0
 16 17  1  0
 17 18  4  0
 18 19  4  0
 19 20  4  0
 20 21  4  0
 21 22  4  0
 22 23  4  0
 23 24  4  0
 24 25  4  0
 25 26  4  0
 26 27  4  0
 27 28  4  0
 28 29  4  0
 29 30  4  0
 30 31  4  0
 31 32  4  0
 32 33  4  0
 33 34  4  0
 34 35  4  0
 35 36  4  0
 36 37  4  0
 37 38  4  0
 38 39  1  0
 39 40  4  0
 40 41  4  0
 41 42  4  0
 42 43  4  0
 43 44  4  0
 44 45  4  0
 45 46  4  0
 46 47  4  0
 47 48  4  0
 48 49  4  0
 49 50  4  0
 50 51  4  0
 51 52  4  0
 52 53  4  0
 53 54  4  0
 54 55  4  0
 55 56  4  0
 56 57  4  0
 57 58  4  0
 58 59  4  0
 59 60  4  0
 16 61  4  0
 61 62  4  0
 62 63  4  0
 63 64  4  0
 64 65  4  0
 65 66  4  0
 10  1  4  0
 66 13  4  0
  9  4  4  0
 64 15  4  0
 66  6  4  0
 38 17  4  0
 60 39  4  0
 36 19  4  0
 57 40  4  0
 34 21  4  0
 55 42  4  0
 32 23  4  0
 54 45  4  0
 30 25  4  0
 52 47  4  0
  1 67  1  0
  2 68  1  0
  3 69  1  0
  5 70  1  0
  8 71  1  0
 10 72  1  0
 11 73  1  0
 12 74  1  0
 14 75  1  0
 18 76  1  0
 20 77  1  0
 22 78  1  0
 24 79  1  0
 26 80  1  0
 27 81  1  0
 28 82  1  0
 29 83  1  0
 31 84  1  0
 33 85  1  0
 35 86  1  0
 37 87  1  0
 41 88  1  0
 43 89  1  0
 44 90  1  0
 46 91  1  0
 48 92  1  0
 49 93  1  0
 50 94  1  0
 51 95  1  0
 53 96  1  0
 56 97  1  0
 58 98  1  0
 59 99  1  0
 60100  1  0
 61101  1  0
 62102  1  0
 63103  1  0
 65104  1  0
M  END
