
     RDKit          3D

 96110  0  0  0  0  0  0  0  0999 V2000
   -1.7409    5.5458    3.5146 C   0  0  0  0  0  0  0  0  0  0  0  0
   -2.8729    6.1898    3.0429 C   0  0  0  0  0  0  0  0  0  0  0  0
   -3.4776    5.7549    1.8597 C   0  0  0  0  0  0  0  0  0  0  0  0
   -2.9760    4.6605    1.1058 C   0  0  0  0  0  0  0  0  0  0  0  0
   -1.8201    4.0262    1.6109 C   0  0  0  0  0  0  0  0  0  0  0  0
   -1.2176    4.4722    2.8008 C   0  0  0  0  0  0  0  0  0  0  0  0
   -1.2657    2.9408    0.9260 C   0  0  0  0  0  0  0  0  0  0  0  0
   -1.8178    2.4285   -0.2636 C   0  0  0  0  0  0  0  0  0  0  0  0
   -2.9767    3.0572   -0.7833 C   0  0  0  0  0  0  0  0  0  0  0  0
   -3.5619    4.1696   -0.1117 C   0  0  0  0  0  0  0  0  0  0  0  0
   -4.7181    4.7389   -0.6937 C   0  0  0  0  0  0  0  0  0  0  0  0
   -5.2841    4.2483   -1.8719 C   0  0  0  0  0  0  0  0  0  0  0  0
   -4.7177    3.1582   -2.5263 C   0  0  0  0  0  0  0  0  0  0  0  0
   -5.2871    2.6541   -3.7055 C   0  0  0  0  0  0  0  0  0  0  0  0
   -4.7220    1.5594   -4.3532 C   0  0  0  0  0  0  0  0  0  0  0  0
   -3.5797    0.9610   -3.8299 C   0  0  0  0  0  0  0  0  0  0  0  0
   -2.9905    1.4531   -2.6555 C   0  0  0  0  0  0  0  0  0  0  0  0
   -3.5586    2.5587   -1.9852 C   0  0  0  0  0  0  0  0  0  0  0  0
   -1.8462    0.8535   -2.1314 C   0  0  0  0  0  0  0  0  0  0  0  0
   -1.2571    1.3097   -0.9411 C   0  0  0  0  0  0  0  0  0  0  0  0
   -0.0791    0.5747   -0.4296 C   0  0  0  0  0  0  0  0  0  0  0  0
    1.2082    0.9943   -0.8138 C   0  0  0  0  0  0  0  0  0  0  0  0
    2.3640    0.3360   -0.3629 C   0  0  0  0  0  0  0  0  0  0  0  0
    3.6468    0.7595   -0.7490 C   0  0  0  0  0  0  0  0  0  0  0  0
    4.8029    0.0975   -0.3018 C   0  0  0  0  0  0  0  0  0  0  0  0
    6.0860    0.5187   -0.6898 C   0  0  0  0  0  0  0  0  0  0  0  0
    7.2422   -0.1456   -0.2460 C   0  0  0  0  0  0  0  0  0  0  0  0
    8.5252    0.2752   -0.6357 C   0  0  0  0  0  0  0  0  0  0  0  0
    9.6806   -0.3905   -0.1938 C   0  0  0  0  0  0  0  0  0  0  0  0
   10.9633    0.0290   -0.5838 C   0  0  0  0  0  0  0  0  0  0  0  0
   12.1016   -0.6433   -0.1363 C   0  0  0  0  0  0  0  0  0  0  0  0
   11.9724   -1.7429    0.7063 C   0  0  0  0  0  0  0  0  0  0  0  0
   10.7048   -2.1720    1.1026 C   0  0  0  0  0  0  0  0  0  0  0  0
    9.5496   -1.5058    0.6607 C   0  0  0  0  0  0  0  0  0  0  0  0
    8.2668   -1.9252    1.0502 C   0  0  0  0  0  0  0  0  0  0  0  0
    7.1115   -1.2585    0.6075 C   0  0  0  0  0  0  0  0  0  0  0  0
    5.8283   -1.6782    0.9971 C   0  0  0  0  0  0  0  0  0  0  0  0
    4.6726   -1.0139    0.5530 C   0  0  0  0  0  0  0  0  0  0  0  0
    3.3899   -1.4351    0.9419 C   0  0  0  0  0  0  0  0  0  0  0  0
    2.2342   -0.7733    0.4942 C   0  0  0  0  0  0  0  0  0  0  0  0
    0.9523   -1.1968    0.8802 C   0  0  0  0  0  0  0  0  0  0  0  0
   -0.2094   -0.5445    0.4268 C   0  0  0  0  0  0  0  0  0  0  0  0
   -1.5314   -1.0487    0.8593 C   0  0  0  0  0  0  0  0  0  0  0  0
   -2.0894   -0.5068    2.0283 C   0  0  0  0  0  0  0  0  0  0  0  0
   -3.3534   -0.8885    2.4769 C   0  0  0  0  0  0  0  0  0  0  0  0
   -4.0850   -1.8494    1.7442 C   0  0  0  0  0  0  0  0  0  0  0  0
   -5.3666   -2.2244    2.2057 C   0  0  0  0  0  0  0  0  0  0  0  0
   -5.8926   -1.6476    3.3714 C   0  0  0  0  0  0  0  0  0  0  0  0
   -5.1639   -0.6995    4.0833 C   0  0  0  0  0  0  0  0  0  0  0  0
   -3.9014   -0.3202    3.6367 C   0  0  0  0  0  0  0  0  0  0  0  0
   -6.0959   -3.1672    1.4868 C   0  0  0  0  0  0  0  0  0  0  0  0
   -5.5707   -3.7308    0.3224 C   0  0  0  0  0  0  0  0  0  0  0  0
   -4.2946   -3.3863   -0.1795 C   0  0  0  0  0  0  0  0  0  0  0  0
   -3.5433   -2.4267    0.5591 C   0  0  0  0  0  0  0  0  0  0  0  0
   -2.2555   -2.0283    0.1231 C   0  0  0  0  0  0  0  0  0  0  0  0
   -1.7415   -2.6208   -1.0462 C   0  0  0  0  0  0  0  0  0  0  0  0
   -2.4578   -3.5564   -1.7978 C   0  0  0  0  0  0  0  0  0  0  0  0
   -1.8839   -4.0870   -2.9669 C   0  0  0  0  0  0  0  0  0  0  0  0
   -2.5681   -5.0122   -3.7488 C   0  0  0  0  0  0  0  0  0  0  0  0
   -3.8352   -5.4207   -3.3667 C   0  0  0  0  0  0  0  0  0  0  0  0
   -4.4122   -4.9018   -2.2036 C   0  0  0  0  0  0  0  0  0  0  0  0
   -3.7468   -3.9541   -1.3813 C   0  0  0  0  0  0  0  0  0  0  0  0
   -1.2634    5.8765    4.4326 H   0  0  0  0  0  0  0  0  0  0  0  0
   -3.2913    7.0312    3.5891 H   0  0  0  0  0  0  0  0  0  0  0  0
   -4.3615    6.2968    1.5365 H   0  0  0  0  0  0  0  0  0  0  0  0
   -0.3255    3.9807    3.1846 H   0  0  0  0  0  0  0  0  0  0  0  0
   -0.3740    2.4741    1.3420 H   0  0  0  0  0  0  0  0  0  0  0  0
   -5.2158    5.5880   -0.2346 H   0  0  0  0  0  0  0  0  0  0  0  0
   -6.1765    4.7294   -2.2656 H   0  0  0  0  0  0  0  0  0  0  0  0
   -6.1815    3.1088   -4.1252 H   0  0  0  0  0  0  0  0  0  0  0  0
   -5.1734    1.1707   -5.2618 H   0  0  0  0  0  0  0  0  0  0  0  0
   -3.1556    0.0989   -4.3411 H   0  0  0  0  0  0  0  0  0  0  0  0
   -1.4087   -0.0021   -2.6432 H   0  0  0  0  0  0  0  0  0  0  0  0
    1.3018    1.8535   -1.4773 H   0  0  0  0  0  0  0  0  0  0  0  0
    3.7466    1.6182   -1.4112 H   0  0  0  0  0  0  0  0  0  0  0  0
    6.1872    1.3785   -1.3500 H   0  0  0  0  0  0  0  0  0  0  0  0
    8.6274    1.1357   -1.2945 H   0  0  0  0  0  0  0  0  0  0  0  0
   11.0851    0.8860   -1.2424 H   0  0  0  0  0  0  0  0  0  0  0  0
   13.0877   -0.3076   -0.4463 H   0  0  0  0  0  0  0  0  0  0  0  0
   12.8574   -2.2679    1.0561 H   0  0  0  0  0  0  0  0  0  0  0  0
   10.6249   -3.0335    1.7618 H   0  0  0  0  0  0  0  0  0  0  0  0
    8.1669   -2.7861    1.7089 H   0  0  0  0  0  0  0  0  0  0  0  0
    5.7277   -2.5382    1.6571 H   0  0  0  0  0  0  0  0  0  0  0  0
    3.2884   -2.2941    1.6034 H   0  0  0  0  0  0  0  0  0  0  0  0
    0.8451   -2.0560    1.5416 H   0  0  0  0  0  0  0  0  0  0  0  0
   -1.5275    0.2427    2.5834 H   0  0  0  0  0  0  0  0  0  0  0  0
   -6.8797   -1.9300    3.7306 H   0  0  0  0  0  0  0  0  0  0  0  0
   -5.5811   -0.2526    4.9814 H   0  0  0  0  0  0  0  0  0  0  0  0
   -3.3488    0.4314    4.1973 H   0  0  0  0  0  0  0  0  0  0  0  0
   -7.0853   -3.4739    1.8184 H   0  0  0  0  0  0  0  0  0  0  0  0
   -6.1968   -4.4556   -0.1898 H   0  0  0  0  0  0  0  0  0  0  0  0
   -0.7498   -2.3358   -1.3945 H   0  0  0  0  0  0  0  0  0  0  0  0
   -0.8883   -3.7789   -3.2811 H   0  0  0  0  0  0  0  0  0  0  0  0
   -2.1107   -5.4109   -4.6499 H   0  0  0  0  0  0  0  0  0  0  0  0
   -4.3809   -6.1435   -3.9675 H   0  0  0  0  0  0  0  0  0  0  0  0
   -5.4075   -5.2566   -1.9529 H   0  0  0  0  0  0  0  0  0  0  0  0
  1  2  4  0
  2  3  4  0
  3  4  4  0
  4  5  4  0
  5  6  4  0
  5  7  4  0
  7  8  4  0
  8  9  4  0
  9 10  4  0
 10 11  4  0
 11 12  4  0
 12 13  4  0
 13 14  4  0
 14 15  4  0
 15 16  4  0
 16 17  4  0
 17 18  4  0
 17 19  4  0
 19 20  4  0
 20 21  1  0
 21 22  4  0
 22 23  4  0
 23 24  4  0
 24 25  4  0
 25 26  4  0
 26 27  4  0
 27 28  4  0
 28 29  4  0
 29 30  4  0
 30 31  4  0
 31 32  4  0
 32 33  4  0
 33 34  4  0
 34 35  4  0
 35 36  4  0
 36 37  4  0
 37 38  4  0
 38 39  4  0
 39 40  4  0
 40 41  4  0
 41 42  4  0
 42 43  1  0
 43 44  4  0
 44 45  4  0
 45 46  4  0
 46 47  4  0
 47 48  4  0
 48 49  4  0
 49 50  4  0
 47 51  4  0
 51 52  4  0
 52 53  4  0
 53 54  4  0
 54 55  4  0
 55 56  4  0
 56 57  4  0
 57 58  4  0
 58 59  4  0
 59 60  4  0
 60 61  4  0
 61 62  4  0
  6  1  4  0
 20  8  4  0
 42 21  4  0
 55 43  4  0
 62 57  4  0
 10  4  4  0
 18 13  4  0
 40 23  4  0
 50 45  4  0
 62 53  4  0
 18  9  4  0
 38 25  4  0
 54 46  4  0
 36 27  4  0
 34 29  4  0
  1 63  1  0
  2 64  1  0
  3 65  1  0
  6 66  1  0
  7 67  1  0
 11 68  1  0
 12 69  1  0
 14 70  1  0
 15 71  1  0
 16 72  1  0
 19 73  1  0
 22 74  1  0
 24 75  1  0
 26 76  1  0
 28 77  1  0
 30 78  1  0
 31 79  1  0
 32 80  1  0
 33 81  1  0
 35 82  1  0
 37 83  1  0
 39 84  1  0
 41 85  1  0
 44 86  1  0
 48 87  1  0
 49 88  1  0
 50 89  1  0
 51 90  1  0
 52 91  1  0
 56 92  1  0
 58 93  1  0
 59 94  1  0
 60 95  1  0
 61 96  1  0
M  END
