
     RDKit          3D

 96110  0  0  0  0  0  0  0  0999 V2000
   -3.7591   -8.7239   -2.6840 C   0  0  0  0  0  0  0  0  0  0  0  0
   -2.6242   -8.0433   -3.1187 C   0  0  0  0  0  0  0  0  0  0  0  0
   -2.2546   -6.8237   -2.5323 C   0  0  0  0  0  0  0  0  0  0  0  0
   -3.0408   -6.2781   -1.4883 C   0  0  0  0  0  0  0  0  0  0  0  0
   -4.1887   -6.9749   -1.0552 C   0  0  0  0  0  0  0  0  0  0  0  0
   -4.5373   -8.1928   -1.6582 C   0  0  0  0  0  0  0  0  0  0  0  0
   -4.9591   -6.4324   -0.0286 C   0  0  0  0  0  0  0  0  0  0  0  0
   -4.6004   -5.2170    0.5634 C   0  0  0  0  0  0  0  0  0  0  0  0
   -3.4570   -4.4813    0.1666 C   0  0  0  0  0  0  0  0  0  0  0  0
   -2.6805   -5.0412   -0.8803 C   0  0  0  0  0  0  0  0  0  0  0  0
   -1.5296   -4.3719   -1.3375 C   0  0  0  0  0  0  0  0  0  0  0  0
   -1.1604   -3.1572   -0.7527 C   0  0  0  0  0  0  0  0  0  0  0  0
   -1.8930   -2.5593    0.2931 C   0  0  0  0  0  0  0  0  0  0  0  0
   -1.4928   -1.3154    0.8751 C   0  0  0  0  0  0  0  0  0  0  0  0
   -0.2911   -0.5762    0.4256 C   0  0  0  0  0  0  0  0  0  0  0  0
    0.9693   -0.9683    0.9187 C   0  0  0  0  0  0  0  0  0  0  0  0
    2.1519   -0.3211    0.5266 C   0  0  0  0  0  0  0  0  0  0  0  0
    3.4050   -0.7221    1.0184 C   0  0  0  0  0  0  0  0  0  0  0  0
    4.5880   -0.0748    0.6242 C   0  0  0  0  0  0  0  0  0  0  0  0
    5.8415   -0.4767    1.1150 C   0  0  0  0  0  0  0  0  0  0  0  0
    7.0250    0.1701    0.7214 C   0  0  0  0  0  0  0  0  0  0  0  0
    8.2781   -0.2330    1.2130 C   0  0  0  0  0  0  0  0  0  0  0  0
    9.4617    0.4134    0.8200 C   0  0  0  0  0  0  0  0  0  0  0  0
   10.7149    0.0110    1.3110 C   0  0  0  0  0  0  0  0  0  0  0  0
   11.8819    0.6635    0.9108 C   0  0  0  0  0  0  0  0  0  0  0  0
   11.8115    1.7259    0.0152 C   0  0  0  0  0  0  0  0  0  0  0  0
   10.5738    2.1374   -0.4816 C   0  0  0  0  0  0  0  0  0  0  0  0
    9.3902    1.4908   -0.0883 C   0  0  0  0  0  0  0  0  0  0  0  0
    8.1368    1.8928   -0.5792 C   0  0  0  0  0  0  0  0  0  0  0  0
    6.9533    1.2455   -0.1853 C   0  0  0  0  0  0  0  0  0  0  0  0
    5.6994    1.6473   -0.6762 C   0  0  0  0  0  0  0  0  0  0  0  0
    4.5158    1.0001   -0.2827 C   0  0  0  0  0  0  0  0  0  0  0  0
    3.2619    1.4009   -0.7739 C   0  0  0  0  0  0  0  0  0  0  0  0
    2.0798    0.7518   -0.3808 C   0  0  0  0  0  0  0  0  0  0  0  0
    0.8267    1.1516   -0.8710 C   0  0  0  0  0  0  0  0  0  0  0  0
   -0.3648    0.5111   -0.4761 C   0  0  0  0  0  0  0  0  0  0  0  0
   -1.6506    1.0043   -1.0200 C   0  0  0  0  0  0  0  0  0  0  0  0
   -2.3313    2.1371   -0.4727 C   0  0  0  0  0  0  0  0  0  0  0  0
   -1.8157    2.8470    0.6307 C   0  0  0  0  0  0  0  0  0  0  0  0
   -2.4623    3.9535    1.1876 C   0  0  0  0  0  0  0  0  0  0  0  0
   -1.9039    4.6208    2.2869 C   0  0  0  0  0  0  0  0  0  0  0  0
   -2.5383    5.7260    2.8514 C   0  0  0  0  0  0  0  0  0  0  0  0
   -3.7477    6.1907    2.3284 C   0  0  0  0  0  0  0  0  0  0  0  0
   -4.3234    5.5261    1.2182 C   0  0  0  0  0  0  0  0  0  0  0  0
   -5.5445    5.9971    0.6917 C   0  0  0  0  0  0  0  0  0  0  0  0
   -6.1723    7.1113    1.2690 C   0  0  0  0  0  0  0  0  0  0  0  0
   -5.6004    7.7601    2.3608 C   0  0  0  0  0  0  0  0  0  0  0  0
   -4.3949    7.3024    2.8874 C   0  0  0  0  0  0  0  0  0  0  0  0
   -6.1060    5.3389   -0.4007 C   0  0  0  0  0  0  0  0  0  0  0  0
   -5.4704    4.2282   -0.9656 C   0  0  0  0  0  0  0  0  0  0  0  0
   -4.2442    3.7172   -0.4736 C   0  0  0  0  0  0  0  0  0  0  0  0
   -3.6803    4.3956    0.6374 C   0  0  0  0  0  0  0  0  0  0  0  0
   -3.5631    2.5741   -1.0328 C   0  0  0  0  0  0  0  0  0  0  0  0
   -4.0650    1.8397   -2.1359 C   0  0  0  0  0  0  0  0  0  0  0  0
   -3.4015    0.7364   -2.6695 C   0  0  0  0  0  0  0  0  0  0  0  0
   -2.2012    0.3250   -2.1170 C   0  0  0  0  0  0  0  0  0  0  0  0
   -2.2504   -0.7591    1.9168 C   0  0  0  0  0  0  0  0  0  0  0  0
   -3.3883   -1.3966    2.3787 C   0  0  0  0  0  0  0  0  0  0  0  0
   -3.7803   -2.6064    1.8093 C   0  0  0  0  0  0  0  0  0  0  0  0
   -3.0581   -3.2278    0.7601 C   0  0  0  0  0  0  0  0  0  0  0  0
   -0.7610   -4.9234   -2.3725 C   0  0  0  0  0  0  0  0  0  0  0  0
   -1.1180   -6.1346   -2.9631 C   0  0  0  0  0  0  0  0  0  0  0  0
   -4.0374   -9.6679   -3.1449 H   0  0  0  0  0  0  0  0  0  0  0  0
   -2.0287   -8.4727   -3.9213 H   0  0  0  0  0  0  0  0  0  0  0  0
   -5.4205   -8.7374   -1.3318 H   0  0  0  0  0  0  0  0  0  0  0  0
   -5.8505   -6.9456    0.3251 H   0  0  0  0  0  0  0  0  0  0  0  0
   -5.2506   -4.8545    1.3542 H   0  0  0  0  0  0  0  0  0  0  0  0
   -0.2678   -2.6618   -1.1321 H   0  0  0  0  0  0  0  0  0  0  0  0
    1.0203   -1.8017    1.6194 H   0  0  0  0  0  0  0  0  0  0  0  0
    3.4605   -1.5536    1.7193 H   0  0  0  0  0  0  0  0  0  0  0  0
    5.8969   -1.3080    1.8158 H   0  0  0  0  0  0  0  0  0  0  0  0
    8.3339   -1.0642    1.9136 H   0  0  0  0  0  0  0  0  0  0  0  0
   10.7909   -0.8173    2.0120 H   0  0  0  0  0  0  0  0  0  0  0  0
   12.8446    0.3413    1.2990 H   0  0  0  0  0  0  0  0  0  0  0  0
   12.7190    2.2354   -0.2978 H   0  0  0  0  0  0  0  0  0  0  0  0
   10.5394    2.9699   -1.1808 H   0  0  0  0  0  0  0  0  0  0  0  0
    8.0831    2.7242   -1.2798 H   0  0  0  0  0  0  0  0  0  0  0  0
    5.6440    2.4783   -1.3772 H   0  0  0  0  0  0  0  0  0  0  0  0
    3.2048    2.2327   -1.4743 H   0  0  0  0  0  0  0  0  0  0  0  0
    0.7650    1.9847   -1.5712 H   0  0  0  0  0  0  0  0  0  0  0  0
   -0.8770    2.5276    1.0815 H   0  0  0  0  0  0  0  0  0  0  0  0
   -0.9623    4.2846    2.7166 H   0  0  0  0  0  0  0  0  0  0  0  0
   -2.0767    6.2199    3.7033 H   0  0  0  0  0  0  0  0  0  0  0  0
   -7.1140    7.4819    0.8706 H   0  0  0  0  0  0  0  0  0  0  0  0
   -6.0942    8.6222    2.8012 H   0  0  0  0  0  0  0  0  0  0  0  0
   -3.9626    7.8213    3.7401 H   0  0  0  0  0  0  0  0  0  0  0  0
   -7.0466    5.6792   -0.8284 H   0  0  0  0  0  0  0  0  0  0  0  0
   -5.9684    3.7674   -1.8137 H   0  0  0  0  0  0  0  0  0  0  0  0
   -5.0032    2.1127   -2.6100 H   0  0  0  0  0  0  0  0  0  0  0  0
   -3.8274    0.1975   -3.5117 H   0  0  0  0  0  0  0  0  0  0  0  0
   -1.6936   -0.5404   -2.5378 H   0  0  0  0  0  0  0  0  0  0  0  0
   -1.9547    0.1866    2.3657 H   0  0  0  0  0  0  0  0  0  0  0  0
   -3.9762   -0.9522    3.1774 H   0  0  0  0  0  0  0  0  0  0  0  0
   -4.6823   -3.0574    2.2123 H   0  0  0  0  0  0  0  0  0  0  0  0
    0.1305   -4.4116   -2.7301 H   0  0  0  0  0  0  0  0  0  0  0  0
   -0.4982   -6.5333   -3.7629 H   0  0  0  0  0  0  0  0  0  0  0  0
  1  2  4  0
  2  3  4  0
  3  4  4  0
  4  5  4  0
  5  6  4  0
  5  7  4  0
  7  8  4  0
  8  9  4  0
  9 10  4  0
 10 11  4  0
 11 12  4  0
 12 13  4  0
 13 14  4  0
 14 15  1  0
 15 16  4  0
 16 17  4  0
 17 18  4  0
 18 19  4  0
 19 20  4  0
 20 21  4  0
 21 22  4  0
 22 23  4  0
 23 24  4  0
 24 25  4  0
 25 26  4  0
 26 27  4  0
 27 28  4  0
 28 29  4  0
 29 30  4  0
 30 31  4  0
 31 32  4  0
 32 33  4  0
 33 34  4  0
 34 35  4  0
 35 36  4  0
 36 37  1  0
 37 38  4  0
 38 39  4  0
 39 40  4  0
 40 41  4  0
 41 42  4  0
 42 43  4  0
 43 44  4  0
 44 45  4  0
 45 46  4  0
 46 47  4  0
 47 48  4  0
 45 49  4  0
 49 50  4  0
 50 51  4  0
 51 52  4  0
 51 53  4  0
 53 54  4  0
 54 55  4  0
 55 56  4  0
 14 57  4  0
 57 58  4  0
 58 59  4  0
 59 60  4  0
 11 61  4  0
 61 62  4  0
  6  1  4  0
 60  9  4  0
 62  3  4  0
 10  4  4  0
 60 13  4  0
 36 15  4  0
 56 37  4  0
 34 17  4  0
 53 38  4  0
 32 19  4  0
 52 40  4  0
 30 21  4  0
 48 43  4  0
 28 23  4  0
 52 44  4  0
  1 63  1  0
  2 64  1  0
  6 65  1  0
  7 66  1  0
  8 67  1  0
 12 68  1  0
 16 69  1  0
 18 70  1  0
 20 71  1  0
 22 72  1  0
 24 73  1  0
 25 74  1  0
 26 75  1  0
 27 76  1  0
 29 77  1  0
 31 78  1  0
 33 79  1  0
 35 80  1  0
 39 81  1  0
 41 82  1  0
 42 83  1  0
 46 84  1  0
 47 85  1  0
 48 86  1  0
 49 87  1  0
 50 88  1  0
 54 89  1  0
 55 90  1  0
 56 91  1  0
 57 92  1  0
 58 93  1  0
 59 94  1  0
 61 95  1  0
 62 96  1  0
M  END
