
     RDKit          3D

 96110  0  0  0  0  0  0  0  0999 V2000
   -4.8387   -3.8179    2.6465 C   0  0  0  0  0  0  0  0  0  0  0  0
   -5.7918   -3.8092    1.6319 C   0  0  0  0  0  0  0  0  0  0  0  0
   -5.4776   -3.3030    0.3621 C   0  0  0  0  0  0  0  0  0  0  0  0
   -4.1823   -2.7883    0.1036 C   0  0  0  0  0  0  0  0  0  0  0  0
   -3.2255   -2.8142    1.1353 C   0  0  0  0  0  0  0  0  0  0  0  0
   -3.5607   -3.3247    2.3989 C   0  0  0  0  0  0  0  0  0  0  0  0
   -1.9484   -2.3382    0.8690 C   0  0  0  0  0  0  0  0  0  0  0  0
   -1.6308   -1.8101   -0.3886 C   0  0  0  0  0  0  0  0  0  0  0  0
   -2.5524   -1.7178   -1.4564 C   0  0  0  0  0  0  0  0  0  0  0  0
   -3.8425   -2.2615   -1.1793 C   0  0  0  0  0  0  0  0  0  0  0  0
   -4.8234   -2.3050   -2.1870 C   0  0  0  0  0  0  0  0  0  0  0  0
   -4.5108   -1.8558   -3.4651 C   0  0  0  0  0  0  0  0  0  0  0  0
   -3.2604   -1.3184   -3.7755 C   0  0  0  0  0  0  0  0  0  0  0  0
   -3.0580   -0.9440   -5.1126 C   0  0  0  0  0  0  0  0  0  0  0  0
   -1.8612   -0.3975   -5.5351 C   0  0  0  0  0  0  0  0  0  0  0  0
   -0.8723   -0.1645   -4.5995 C   0  0  0  0  0  0  0  0  0  0  0  0
   -1.0504   -0.4815   -3.2286 C   0  0  0  0  0  0  0  0  0  0  0  0
    0.0466    0.0010   -2.3531 C   0  0  0  0  0  0  0  0  0  0  0  0
    1.2035   -0.7976   -2.2252 C   0  0  0  0  0  0  0  0  0  0  0  0
    2.3314   -0.3624   -1.5110 C   0  0  0  0  0  0  0  0  0  0  0  0
    3.4662   -1.1770   -1.3658 C   0  0  0  0  0  0  0  0  0  0  0  0
    4.5972   -0.7382   -0.6568 C   0  0  0  0  0  0  0  0  0  0  0  0
    5.7306   -1.5547   -0.5067 C   0  0  0  0  0  0  0  0  0  0  0  0
    6.8623   -1.1161    0.2010 C   0  0  0  0  0  0  0  0  0  0  0  0
    7.9949   -1.9341    0.3505 C   0  0  0  0  0  0  0  0  0  0  0  0
    9.1271   -1.4958    1.0571 C   0  0  0  0  0  0  0  0  0  0  0  0
   10.2599   -2.3129    1.2065 C   0  0  0  0  0  0  0  0  0  0  0  0
   11.3772   -1.8628    1.9115 C   0  0  0  0  0  0  0  0  0  0  0  0
   11.3764   -0.5910    2.4758 C   0  0  0  0  0  0  0  0  0  0  0  0
   10.2584    0.2326    2.3359 C   0  0  0  0  0  0  0  0  0  0  0  0
    9.1263   -0.2060    1.6293 C   0  0  0  0  0  0  0  0  0  0  0  0
    7.9933    0.6108    1.4796 C   0  0  0  0  0  0  0  0  0  0  0  0
    6.8611    0.1712    0.7726 C   0  0  0  0  0  0  0  0  0  0  0  0
    5.7272    0.9875    0.6231 C   0  0  0  0  0  0  0  0  0  0  0  0
    4.5951    0.5481   -0.0840 C   0  0  0  0  0  0  0  0  0  0  0  0
    3.4606    1.3632   -0.2320 C   0  0  0  0  0  0  0  0  0  0  0  0
    2.3286    0.9219   -0.9367 C   0  0  0  0  0  0  0  0  0  0  0  0
    1.1942    1.7361   -1.0817 C   0  0  0  0  0  0  0  0  0  0  0  0
    0.0355    1.2919   -1.7547 C   0  0  0  0  0  0  0  0  0  0  0  0
   -1.0942    2.2417   -1.9108 C   0  0  0  0  0  0  0  0  0  0  0  0
   -2.0810    2.5575   -0.8855 C   0  0  0  0  0  0  0  0  0  0  0  0
   -3.0989    3.4694   -1.2985 C   0  0  0  0  0  0  0  0  0  0  0  0
   -3.1237    4.0417   -2.5793 C   0  0  0  0  0  0  0  0  0  0  0  0
   -2.1435    3.7667   -3.5121 C   0  0  0  0  0  0  0  0  0  0  0  0
   -1.1380    2.8833   -3.1745 C   0  0  0  0  0  0  0  0  0  0  0  0
   -4.1276    3.8569   -0.4388 C   0  0  0  0  0  0  0  0  0  0  0  0
   -4.2017    3.4088    0.8743 C   0  0  0  0  0  0  0  0  0  0  0  0
   -5.2489    3.8461    1.6983 C   0  0  0  0  0  0  0  0  0  0  0  0
   -5.3356    3.4358    3.0252 C   0  0  0  0  0  0  0  0  0  0  0  0
   -4.3742    2.5775    3.5577 C   0  0  0  0  0  0  0  0  0  0  0  0
   -3.3163    2.1221    2.7309 C   0  0  0  0  0  0  0  0  0  0  0  0
   -2.3537    1.2576    3.2843 C   0  0  0  0  0  0  0  0  0  0  0  0
   -2.4437    0.8600    4.6274 C   0  0  0  0  0  0  0  0  0  0  0  0
   -3.4854    1.3141    5.4306 C   0  0  0  0  0  0  0  0  0  0  0  0
   -4.4469    2.1678    4.8976 C   0  0  0  0  0  0  0  0  0  0  0  0
   -1.3215    0.8096    2.4733 C   0  0  0  0  0  0  0  0  0  0  0  0
   -1.2450    1.2078    1.1326 C   0  0  0  0  0  0  0  0  0  0  0  0
   -2.1625    2.0867    0.5105 C   0  0  0  0  0  0  0  0  0  0  0  0
   -3.2173    2.5320    1.3646 C   0  0  0  0  0  0  0  0  0  0  0  0
   -2.2501   -1.1638   -2.7811 C   0  0  0  0  0  0  0  0  0  0  0  0
   -6.1014   -2.8178   -1.9209 C   0  0  0  0  0  0  0  0  0  0  0  0
   -6.4282   -3.3048   -0.6588 C   0  0  0  0  0  0  0  0  0  0  0  0
   -5.0910   -4.2099    3.6279 H   0  0  0  0  0  0  0  0  0  0  0  0
   -6.7845   -4.2023    1.8390 H   0  0  0  0  0  0  0  0  0  0  0  0
   -2.8261   -3.3383    3.2006 H   0  0  0  0  0  0  0  0  0  0  0  0
   -1.1771   -2.3625    1.6349 H   0  0  0  0  0  0  0  0  0  0  0  0
   -0.6081   -1.4806   -0.5015 H   0  0  0  0  0  0  0  0  0  0  0  0
   -5.2697   -1.9286   -4.2436 H   0  0  0  0  0  0  0  0  0  0  0  0
   -3.8429   -1.0885   -5.8535 H   0  0  0  0  0  0  0  0  0  0  0  0
   -1.7137   -0.1261   -6.5757 H   0  0  0  0  0  0  0  0  0  0  0  0
    0.0506    0.3118   -4.9289 H   0  0  0  0  0  0  0  0  0  0  0  0
    1.2144   -1.7790   -2.6995 H   0  0  0  0  0  0  0  0  0  0  0  0
    3.4693   -2.1706   -1.8113 H   0  0  0  0  0  0  0  0  0  0  0  0
    5.7315   -2.5497   -0.9482 H   0  0  0  0  0  0  0  0  0  0  0  0
    7.9960   -2.9293   -0.0905 H   0  0  0  0  0  0  0  0  0  0  0  0
   10.2797   -3.3102    0.7728 H   0  0  0  0  0  0  0  0  0  0  0  0
   12.2467   -2.5059    2.0192 H   0  0  0  0  0  0  0  0  0  0  0  0
   12.2454   -0.2385    3.0253 H   0  0  0  0  0  0  0  0  0  0  0  0
   10.2769    1.2234    2.7843 H   0  0  0  0  0  0  0  0  0  0  0  0
    7.9939    1.6056    1.9215 H   0  0  0  0  0  0  0  0  0  0  0  0
    5.7257    1.9826    1.0647 H   0  0  0  0  0  0  0  0  0  0  0  0
    3.4558    2.3574    0.2121 H   0  0  0  0  0  0  0  0  0  0  0  0
    1.1942    2.7380   -0.6518 H   0  0  0  0  0  0  0  0  0  0  0  0
   -3.9149    4.7344   -2.8629 H   0  0  0  0  0  0  0  0  0  0  0  0
   -2.1662    4.2307   -4.4931 H   0  0  0  0  0  0  0  0  0  0  0  0
   -0.3676    2.6736   -3.9145 H   0  0  0  0  0  0  0  0  0  0  0  0
   -4.8932    4.5450   -0.7972 H   0  0  0  0  0  0  0  0  0  0  0  0
   -6.0112    4.5199    1.3125 H   0  0  0  0  0  0  0  0  0  0  0  0
   -6.1589    3.7969    3.6366 H   0  0  0  0  0  0  0  0  0  0  0  0
   -1.7006    0.1914    5.0555 H   0  0  0  0  0  0  0  0  0  0  0  0
   -3.5500    1.0008    6.4687 H   0  0  0  0  0  0  0  0  0  0  0  0
   -5.2562    2.5129    5.5369 H   0  0  0  0  0  0  0  0  0  0  0  0
   -0.5626    0.1337    2.8601 H   0  0  0  0  0  0  0  0  0  0  0  0
   -0.4240    0.7743    0.5832 H   0  0  0  0  0  0  0  0  0  0  0  0
   -6.8603   -2.8414   -2.7001 H   0  0  0  0  0  0  0  0  0  0  0  0
   -7.4291   -3.6917   -0.4850 H   0  0  0  0  0  0  0  0  0  0  0  0
  1  2  4  0
  2  3  4  0
  3  4  4  0
  4  5  4  0
  5  6  4  0
  5  7  4  0
  7  8  4  0
  8  9  4  0
  9 10  4  0
 10 11  4  0
 11 12  4  0
 12 13  4  0
 13 14  4  0
 14 15  4  0
 15 16  4  0
 16 17  4  0
 17 18  1  0
 18 19  4  0
 19 20  4  0
 20 21  4  0
 21 22  4  0
 22 23  4  0
 23 24  4  0
 24 25  4  0
 25 26  4  0
 26 27  4  0
 27 28  4  0
 28 29  4  0
 29 30  4  0
 30 31  4  0
 31 32  4  0
 32 33  4  0
 33 34  4  0
 34 35  4  0
 35 36  4  0
 36 37  4  0
 37 38  4  0
 38 39  4  0
 39 40  1  0
 40 41  4  0
 41 42  4  0
 42 43  4  0
 43 44  4  0
 44 45  4  0
 42 46  4  0
 46 47  4  0
 47 48  4  0
 48 49  4  0
 49 50  4  0
 50 51  4  0
 51 52  4  0
 52 53  4  0
 53 54  4  0
 54 55  4  0
 52 56  4  0
 56 57  4  0
 57 58  4  0
 58 59  4  0
 17 60  4  0
 11 61  4  0
 61 62  4  0
  6  1  4  0
 60  9  4  0
 62  3  4  0
 10  4  4  0
 60 13  4  0
 39 18  4  0
 45 40  4  0
 59 47  4  0
 37 20  4  0
 58 41  4  0
 35 22  4  0
 55 50  4  0
 33 24  4  0
 59 51  4  0
 31 26  4  0
  1 63  1  0
  2 64  1  0
  6 65  1  0
  7 66  1  0
  8 67  1  0
 12 68  1  0
 14 69  1  0
 15 70  1  0
 16 71  1  0
 19 72  1  0
 21 73  1  0
 23 74  1  0
 25 75  1  0
 27 76  1  0
 28 77  1  0
 29 78  1  0
 30 79  1  0
 32 80  1  0
 34 81  1  0
 36 82  1  0
 38 83  1  0
 43 84  1  0
 44 85  1  0
 45 86  1  0
 46 87  1  0
 48 88  1  0
 49 89  1  0
 53 90  1  0
 54 91  1  0
 55 92  1  0
 56 93  1  0
 57 94  1  0
 61 95  1  0
 62 96  1  0
M  END
