
     RDKit          3D

 96110  0  0  0  0  0  0  0  0999 V2000
    5.0348    7.0430   -3.6112 C   0  0  0  0  0  0  0  0  0  0  0  0
    5.4967    7.4155   -2.3593 C   0  0  0  0  0  0  0  0  0  0  0  0
    4.9994    6.7814   -1.2166 C   0  0  0  0  0  0  0  0  0  0  0  0
    4.0233    5.7527   -1.2817 C   0  0  0  0  0  0  0  0  0  0  0  0
    3.5700    5.3943   -2.5739 C   0  0  0  0  0  0  0  0  0  0  0  0
    4.0773    6.0385   -3.7163 C   0  0  0  0  0  0  0  0  0  0  0  0
    2.6083    4.3912   -2.7221 C   0  0  0  0  0  0  0  0  0  0  0  0
    2.0746    3.7212   -1.6179 C   0  0  0  0  0  0  0  0  0  0  0  0
    1.1117    2.7263   -1.8012 C   0  0  0  0  0  0  0  0  0  0  0  0
    0.5715    2.0481   -0.7099 C   0  0  0  0  0  0  0  0  0  0  0  0
    0.9752    2.3295    0.6084 C   0  0  0  0  0  0  0  0  0  0  0  0
    1.9488    3.3490    0.7961 C   0  0  0  0  0  0  0  0  0  0  0  0
    2.3712    3.6771    2.1035 C   0  0  0  0  0  0  0  0  0  0  0  0
    1.8327    3.0065    3.2048 C   0  0  0  0  0  0  0  0  0  0  0  0
    0.8820    2.0070    3.0248 C   0  0  0  0  0  0  0  0  0  0  0  0
    0.4481    1.6438    1.7396 C   0  0  0  0  0  0  0  0  0  0  0  0
   -0.5619    0.5690    1.6263 C   0  0  0  0  0  0  0  0  0  0  0  0
   -1.9249    0.9269    1.6220 C   0  0  0  0  0  0  0  0  0  0  0  0
   -2.9438   -0.0342    1.5256 C   0  0  0  0  0  0  0  0  0  0  0  0
   -4.3000    0.3322    1.5148 C   0  0  0  0  0  0  0  0  0  0  0  0
   -5.3187   -0.6308    1.4181 C   0  0  0  0  0  0  0  0  0  0  0  0
   -6.6753   -0.2651    1.4058 C   0  0  0  0  0  0  0  0  0  0  0  0
   -7.6940   -1.2280    1.3080 C   0  0  0  0  0  0  0  0  0  0  0  0
   -9.0504   -0.8613    1.2948 C   0  0  0  0  0  0  0  0  0  0  0  0
  -10.0690   -1.8239    1.1971 C   0  0  0  0  0  0  0  0  0  0  0  0
  -11.4253   -1.4580    1.1840 C   0  0  0  0  0  0  0  0  0  0  0  0
  -12.4255   -2.4265    1.0864 C   0  0  0  0  0  0  0  0  0  0  0  0
  -12.0832   -3.7723    1.0008 C   0  0  0  0  0  0  0  0  0  0  0  0
  -10.7401   -4.1517    1.0126 C   0  0  0  0  0  0  0  0  0  0  0  0
   -9.7218   -3.1888    1.1103 C   0  0  0  0  0  0  0  0  0  0  0  0
   -8.3654   -3.5542    1.1235 C   0  0  0  0  0  0  0  0  0  0  0  0
   -7.3474   -2.5904    1.2212 C   0  0  0  0  0  0  0  0  0  0  0  0
   -5.9907   -2.9560    1.2343 C   0  0  0  0  0  0  0  0  0  0  0  0
   -4.9723   -1.9928    1.3313 C   0  0  0  0  0  0  0  0  0  0  0  0
   -3.6158   -2.3585    1.3431 C   0  0  0  0  0  0  0  0  0  0  0  0
   -2.5980   -1.3949    1.4383 C   0  0  0  0  0  0  0  0  0  0  0  0
   -1.2421   -1.7589    1.4470 C   0  0  0  0  0  0  0  0  0  0  0  0
   -0.2133   -0.7991    1.5326 C   0  0  0  0  0  0  0  0  0  0  0  0
    1.1909   -1.2659    1.5278 C   0  0  0  0  0  0  0  0  0  0  0  0
    1.8515   -1.3872    2.7604 C   0  0  0  0  0  0  0  0  0  0  0  0
    3.1724   -1.8177    2.8269 C   0  0  0  0  0  0  0  0  0  0  0  0
    3.8680   -2.1499    1.6616 C   0  0  0  0  0  0  0  0  0  0  0  0
    5.1918   -2.5801    1.7330 C   0  0  0  0  0  0  0  0  0  0  0  0
    5.8937   -2.9194    0.5749 C   0  0  0  0  0  0  0  0  0  0  0  0
    5.3102   -2.8467   -0.7088 C   0  0  0  0  0  0  0  0  0  0  0  0
    3.9593   -2.4064   -0.7750 C   0  0  0  0  0  0  0  0  0  0  0  0
    3.3174   -2.3130   -2.0272 C   0  0  0  0  0  0  0  0  0  0  0  0
    4.0084   -2.6495   -3.1945 C   0  0  0  0  0  0  0  0  0  0  0  0
    5.3361   -3.0841   -3.1589 C   0  0  0  0  0  0  0  0  0  0  0  0
    5.9882   -3.4110   -4.3612 C   0  0  0  0  0  0  0  0  0  0  0  0
    7.3095   -3.8483   -4.3682 C   0  0  0  0  0  0  0  0  0  0  0  0
    7.9950   -3.9641   -3.1698 C   0  0  0  0  0  0  0  0  0  0  0  0
    7.3563   -3.6416   -1.9684 C   0  0  0  0  0  0  0  0  0  0  0  0
    6.0108   -3.1916   -1.9192 C   0  0  0  0  0  0  0  0  0  0  0  0
    1.9901   -1.8851   -2.0986 C   0  0  0  0  0  0  0  0  0  0  0  0
    1.2882   -1.5448   -0.9433 C   0  0  0  0  0  0  0  0  0  0  0  0
    1.8826   -1.6140    0.3312 C   0  0  0  0  0  0  0  0  0  0  0  0
    3.2327   -2.0551    0.4036 C   0  0  0  0  0  0  0  0  0  0  0  0
    3.3254    4.6764    2.2874 C   0  0  0  0  0  0  0  0  0  0  0  0
    3.8665    5.3542    1.1933 C   0  0  0  0  0  0  0  0  0  0  0  0
    3.4816    5.0697   -0.1353 C   0  0  0  0  0  0  0  0  0  0  0  0
    2.5060    4.0506   -0.3161 C   0  0  0  0  0  0  0  0  0  0  0  0
    5.4164    7.5303   -4.5041 H   0  0  0  0  0  0  0  0  0  0  0  0
    6.2443    8.1986   -2.2636 H   0  0  0  0  0  0  0  0  0  0  0  0
    5.3974    7.1134   -0.2621 H   0  0  0  0  0  0  0  0  0  0  0  0
    3.7262    5.7588   -4.7077 H   0  0  0  0  0  0  0  0  0  0  0  0
    2.2666    4.1246   -3.7212 H   0  0  0  0  0  0  0  0  0  0  0  0
    0.7678    2.4637   -2.7993 H   0  0  0  0  0  0  0  0  0  0  0  0
   -0.1772    1.2854   -0.9095 H   0  0  0  0  0  0  0  0  0  0  0  0
    2.1493    3.2545    4.2153 H   0  0  0  0  0  0  0  0  0  0  0  0
    0.4777    1.5004    3.8990 H   0  0  0  0  0  0  0  0  0  0  0  0
   -2.1880    1.9822    1.6929 H   0  0  0  0  0  0  0  0  0  0  0  0
   -4.5672    1.3856    1.5822 H   0  0  0  0  0  0  0  0  0  0  0  0
   -6.9435    0.7878    1.4737 H   0  0  0  0  0  0  0  0  0  0  0  0
   -9.3190    0.1914    1.3619 H   0  0  0  0  0  0  0  0  0  0  0  0
  -11.7131   -0.4111    1.2499 H   0  0  0  0  0  0  0  0  0  0  0  0
  -13.4708   -2.1288    1.0774 H   0  0  0  0  0  0  0  0  0  0  0  0
  -12.8604   -4.5282    0.9247 H   0  0  0  0  0  0  0  0  0  0  0  0
  -10.4926   -5.2087    0.9448 H   0  0  0  0  0  0  0  0  0  0  0  0
   -8.0983   -4.6073    1.0567 H   0  0  0  0  0  0  0  0  0  0  0  0
   -5.7228   -4.0091    1.1679 H   0  0  0  0  0  0  0  0  0  0  0  0
   -3.3475   -3.4117    1.2763 H   0  0  0  0  0  0  0  0  0  0  0  0
   -0.9693   -2.8121    1.3809 H   0  0  0  0  0  0  0  0  0  0  0  0
    1.3318   -1.1383    3.6832 H   0  0  0  0  0  0  0  0  0  0  0  0
    3.6526   -1.8889    3.7999 H   0  0  0  0  0  0  0  0  0  0  0  0
    5.6984   -2.6569    2.6925 H   0  0  0  0  0  0  0  0  0  0  0  0
    6.9215   -3.2451    0.7054 H   0  0  0  0  0  0  0  0  0  0  0  0
    3.4993   -2.5705   -4.1540 H   0  0  0  0  0  0  0  0  0  0  0  0
    5.4651   -3.3261   -5.3118 H   0  0  0  0  0  0  0  0  0  0  0  0
    7.7983   -4.0965   -5.3061 H   0  0  0  0  0  0  0  0  0  0  0  0
    9.0271   -4.3045   -3.1614 H   0  0  0  0  0  0  0  0  0  0  0  0
    7.9413   -3.7513   -1.0599 H   0  0  0  0  0  0  0  0  0  0  0  0
    1.4824   -1.8091   -3.0577 H   0  0  0  0  0  0  0  0  0  0  0  0
    0.2570   -1.2189   -1.0578 H   0  0  0  0  0  0  0  0  0  0  0  0
    3.6636    4.9434    3.2864 H   0  0  0  0  0  0  0  0  0  0  0  0
    4.6062    6.1191    1.4105 H   0  0  0  0  0  0  0  0  0  0  0  0
  1  2  4  0
  2  3  4  0
  3  4  4  0
  4  5  4  0
  5  6  4  0
  5  7  4  0
  7  8  4  0
  8  9  4  0
  9 10  4  0
 10 11  4  0
 11 12  4  0
 12 13  4  0
 13 14  4  0
 14 15  4  0
 15 16  4  0
 16 17  1  0
 17 18  4  0
 18 19  4  0
 19 20  4  0
 20 21  4  0
 21 22  4  0
 22 23  4  0
 23 24  4  0
 24 25  4  0
 25 26  4  0
 26 27  4  0
 27 28  4  0
 28 29  4  0
 29 30  4  0
 30 31  4  0
 31 32  4  0
 32 33  4  0
 33 34  4  0
 34 35  4  0
 35 36  4  0
 36 37  4  0
 37 38  4  0
 38 39  1  0
 39 40  4  0
 40 41  4  0
 41 42  4  0
 42 43  4  0
 43 44  4  0
 44 45  4  0
 45 46  4  0
 46 47  4  0
 47 48  4  0
 48 49  4  0
 49 50  4  0
 50 51  4  0
 51 52  4  0
 52 53  4  0
 53 54  4  0
 47 55  4  0
 55 56  4  0
 56 57  4  0
 57 58  4  0
 13 59  4  0
 59 60  4  0
 60 61  4  0
 61 62  4  0
  6  1  4  0
 62  8  4  0
 61  4  4  0
 16 11  4  0
 38 17  4  0
 57 39  4  0
 62 12  4  0
 36 19  4  0
 58 42  4  0
 34 21  4  0
 54 45  4  0
 32 23  4  0
 58 46  4  0
 30 25  4  0
 54 49  4  0
  1 63  1  0
  2 64  1  0
  3 65  1  0
  6 66  1  0
  7 67  1  0
  9 68  1  0
 10 69  1  0
 14 70  1  0
 15 71  1  0
 18 72  1  0
 20 73  1  0
 22 74  1  0
 24 75  1  0
 26 76  1  0
 27 77  1  0
 28 78  1  0
 29 79  1  0
 31 80  1  0
 33 81  1  0
 35 82  1  0
 37 83  1  0
 40 84  1  0
 41 85  1  0
 43 86  1  0
 44 87  1  0
 48 88  1  0
 50 89  1  0
 51 90  1  0
 52 91  1  0
 53 92  1  0
 55 93  1  0
 56 94  1  0
 59 95  1  0
 60 96  1  0
M  END
