
     RDKit          3D

 96110  0  0  0  0  0  0  0  0999 V2000
   -6.3346    7.8270   -0.8898 C   0  0  0  0  0  0  0  0  0  0  0  0
   -6.2159    7.2399    0.3678 C   0  0  0  0  0  0  0  0  0  0  0  0
   -5.2439    6.2576    0.6088 C   0  0  0  0  0  0  0  0  0  0  0  0
   -4.3745    5.8585   -0.4353 C   0  0  0  0  0  0  0  0  0  0  0  0
   -4.5021    6.4584   -1.7066 C   0  0  0  0  0  0  0  0  0  0  0  0
   -5.4828    7.4386   -1.9213 C   0  0  0  0  0  0  0  0  0  0  0  0
   -3.6439    6.0607   -2.7310 C   0  0  0  0  0  0  0  0  0  0  0  0
   -2.6708    5.0822   -2.5049 C   0  0  0  0  0  0  0  0  0  0  0  0
   -2.5053    4.4538   -1.2481 C   0  0  0  0  0  0  0  0  0  0  0  0
   -3.3821    4.8633   -0.2086 C   0  0  0  0  0  0  0  0  0  0  0  0
   -3.2809    4.2830    1.0743 C   0  0  0  0  0  0  0  0  0  0  0  0
   -2.3127    3.3049    1.3159 C   0  0  0  0  0  0  0  0  0  0  0  0
   -1.4343    2.8804    0.3138 C   0  0  0  0  0  0  0  0  0  0  0  0
   -0.4774    1.8910    0.6085 C   0  0  0  0  0  0  0  0  0  0  0  0
    0.4210    1.4162   -0.3554 C   0  0  0  0  0  0  0  0  0  0  0  0
    1.4115    0.3708   -0.0341 C   0  0  0  0  0  0  0  0  0  0  0  0
    2.7808    0.7086   -0.0726 C   0  0  0  0  0  0  0  0  0  0  0  0
    3.7887   -0.2225    0.2260 C   0  0  0  0  0  0  0  0  0  0  0  0
    5.1490    0.1274    0.1847 C   0  0  0  0  0  0  0  0  0  0  0  0
    6.1556   -0.8069    0.4814 C   0  0  0  0  0  0  0  0  0  0  0  0
    7.5161   -0.4582    0.4395 C   0  0  0  0  0  0  0  0  0  0  0  0
    8.5226   -1.3930    0.7353 C   0  0  0  0  0  0  0  0  0  0  0  0
    9.8831   -1.0436    0.6930 C   0  0  0  0  0  0  0  0  0  0  0  0
   10.8892   -1.9783    0.9886 C   0  0  0  0  0  0  0  0  0  0  0  0
   12.2496   -1.6301    0.9466 C   0  0  0  0  0  0  0  0  0  0  0  0
   13.2371   -2.5708    1.2432 C   0  0  0  0  0  0  0  0  0  0  0  0
   12.8778   -3.8707    1.5853 C   0  0  0  0  0  0  0  0  0  0  0  0
   11.5305   -4.2318    1.6314 C   0  0  0  0  0  0  0  0  0  0  0  0
   10.5250   -3.2965    1.3356 C   0  0  0  0  0  0  0  0  0  0  0  0
    9.1648   -3.6447    1.3777 C   0  0  0  0  0  0  0  0  0  0  0  0
    8.1592   -2.7090    1.0818 C   0  0  0  0  0  0  0  0  0  0  0  0
    6.7986   -3.0573    1.1241 C   0  0  0  0  0  0  0  0  0  0  0  0
    5.7925   -2.1223    0.8283 C   0  0  0  0  0  0  0  0  0  0  0  0
    4.4319   -2.4705    0.8709 C   0  0  0  0  0  0  0  0  0  0  0  0
    3.4264   -1.5348    0.5746 C   0  0  0  0  0  0  0  0  0  0  0  0
    2.0660   -1.8800    0.6171 C   0  0  0  0  0  0  0  0  0  0  0  0
    1.0469   -0.9512    0.3189 C   0  0  0  0  0  0  0  0  0  0  0  0
   -0.3547   -1.4070    0.3776 C   0  0  0  0  0  0  0  0  0  0  0  0
   -0.9344   -1.7862    1.5890 C   0  0  0  0  0  0  0  0  0  0  0  0
   -2.2657   -2.2158    1.6426 C   0  0  0  0  0  0  0  0  0  0  0  0
   -3.0841   -2.2912    0.4888 C   0  0  0  0  0  0  0  0  0  0  0  0
   -2.4855   -1.9097   -0.7351 C   0  0  0  0  0  0  0  0  0  0  0  0
   -1.1453   -1.4815   -0.7759 C   0  0  0  0  0  0  0  0  0  0  0  0
   -3.2272   -1.9556   -1.9199 C   0  0  0  0  0  0  0  0  0  0  0  0
   -4.5601   -2.3750   -1.9333 C   0  0  0  0  0  0  0  0  0  0  0  0
   -5.2793   -2.4135   -3.1357 C   0  0  0  0  0  0  0  0  0  0  0  0
   -6.6099   -2.8296   -3.1611 C   0  0  0  0  0  0  0  0  0  0  0  0
   -7.2541   -3.2177   -1.9830 C   0  0  0  0  0  0  0  0  0  0  0  0
   -6.5411   -3.1847   -0.7599 C   0  0  0  0  0  0  0  0  0  0  0  0
   -7.1926   -3.5766    0.4293 C   0  0  0  0  0  0  0  0  0  0  0  0
   -8.5319   -3.9922    0.3876 C   0  0  0  0  0  0  0  0  0  0  0  0
   -9.2278   -4.0225   -0.8188 C   0  0  0  0  0  0  0  0  0  0  0  0
   -8.5925   -3.6375   -1.9972 C   0  0  0  0  0  0  0  0  0  0  0  0
   -6.4856   -3.5422    1.6306 C   0  0  0  0  0  0  0  0  0  0  0  0
   -5.1511   -3.1261    1.6595 C   0  0  0  0  0  0  0  0  0  0  0  0
   -4.4570   -2.7244    0.4940 C   0  0  0  0  0  0  0  0  0  0  0  0
   -5.1823   -2.7613   -0.7265 C   0  0  0  0  0  0  0  0  0  0  0  0
    0.3529    1.9696   -1.6348 C   0  0  0  0  0  0  0  0  0  0  0  0
   -0.5913    2.9575   -1.9394 C   0  0  0  0  0  0  0  0  0  0  0  0
   -1.5146    3.4438   -0.9815 C   0  0  0  0  0  0  0  0  0  0  0  0
   -4.1494    4.6884    2.0969 C   0  0  0  0  0  0  0  0  0  0  0  0
   -5.1193    5.6635    1.8678 C   0  0  0  0  0  0  0  0  0  0  0  0
   -7.0910    8.5871   -1.0662 H   0  0  0  0  0  0  0  0  0  0  0  0
   -6.8898    7.5555    1.1611 H   0  0  0  0  0  0  0  0  0  0  0  0
   -5.5902    7.9075   -2.8969 H   0  0  0  0  0  0  0  0  0  0  0  0
   -3.7203    6.5058   -3.7206 H   0  0  0  0  0  0  0  0  0  0  0  0
   -2.0378    4.8203   -3.3478 H   0  0  0  0  0  0  0  0  0  0  0  0
   -2.2437    2.8605    2.3078 H   0  0  0  0  0  0  0  0  0  0  0  0
   -0.4332    1.4725    1.6133 H   0  0  0  0  0  0  0  0  0  0  0  0
    3.0615    1.7291   -0.3330 H   0  0  0  0  0  0  0  0  0  0  0  0
    5.4295    1.1446   -0.0837 H   0  0  0  0  0  0  0  0  0  0  0  0
    7.7968    0.5590    0.1718 H   0  0  0  0  0  0  0  0  0  0  0  0
   10.1647   -0.0267    0.4256 H   0  0  0  0  0  0  0  0  0  0  0  0
   12.5508   -0.6191    0.6815 H   0  0  0  0  0  0  0  0  0  0  0  0
   14.2857   -2.2873    1.2067 H   0  0  0  0  0  0  0  0  0  0  0  0
   13.6451   -4.6048    1.8166 H   0  0  0  0  0  0  0  0  0  0  0  0
   11.2694   -5.2527    1.9009 H   0  0  0  0  0  0  0  0  0  0  0  0
    8.8850   -4.6619    1.6459 H   0  0  0  0  0  0  0  0  0  0  0  0
    6.5182   -4.0745    1.3921 H   0  0  0  0  0  0  0  0  0  0  0  0
    4.1506   -3.4875    1.1393 H   0  0  0  0  0  0  0  0  0  0  0  0
    1.7848   -2.9004    0.8774 H   0  0  0  0  0  0  0  0  0  0  0  0
   -0.3568   -1.7412    2.5101 H   0  0  0  0  0  0  0  0  0  0  0  0
   -2.6521   -2.4909    2.6196 H   0  0  0  0  0  0  0  0  0  0  0  0
   -0.7044   -1.1925   -1.7293 H   0  0  0  0  0  0  0  0  0  0  0  0
   -2.7561   -1.6562   -2.8551 H   0  0  0  0  0  0  0  0  0  0  0  0
   -4.8076   -2.1177   -4.0707 H   0  0  0  0  0  0  0  0  0  0  0  0
   -7.1376   -2.8468   -4.1120 H   0  0  0  0  0  0  0  0  0  0  0  0
   -9.0438   -4.2962    1.2979 H   0  0  0  0  0  0  0  0  0  0  0  0
  -10.2651   -4.3461   -0.8406 H   0  0  0  0  0  0  0  0  0  0  0  0
   -9.1514   -3.6674   -2.9299 H   0  0  0  0  0  0  0  0  0  0  0  0
   -6.9629   -3.8385    2.5620 H   0  0  0  0  0  0  0  0  0  0  0  0
   -4.6618   -3.1233    2.6291 H   0  0  0  0  0  0  0  0  0  0  0  0
    1.0302    1.6292   -2.4155 H   0  0  0  0  0  0  0  0  0  0  0  0
   -0.5897    3.3389   -2.9563 H   0  0  0  0  0  0  0  0  0  0  0  0
   -4.0795    4.2455    3.0882 H   0  0  0  0  0  0  0  0  0  0  0  0
   -5.7768    5.9534    2.6841 H   0  0  0  0  0  0  0  0  0  0  0  0
  1  2  4  0
  2  3  4  0
  3  4  4  0
  4  5  4  0
  5  6  4  0
  5  7  4  0
  7  8  4  0
  8  9  4  0
  9 10  4  0
 10 11  4  0
 11 12  4  0
 12 13  4  0
 13 14  4  0
 14 15  4  0
 15 16  1  0
 16 17  4  0
 17 18  4  0
 18 19  4  0
 19 20  4  0
 20 21  4  0
 21 22  4  0
 22 23  4  0
 23 24  4  0
 24 25  4  0
 25 26  4  0
 26 27  4  0
 27 28  4  0
 28 29  4  0
 29 30  4  0
 30 31  4  0
 31 32  4  0
 32 33  4  0
 33 34  4  0
 34 35  4  0
 35 36  4  0
 36 37  4  0
 37 38  1  0
 38 39  4  0
 39 40  4  0
 40 41  4  0
 41 42  4  0
 42 43  4  0
 42 44  4  0
 44 45  4  0
 45 46  4  0
 46 47  4  0
 47 48  4  0
 48 49  4  0
 49 50  4  0
 50 51  4  0
 51 52  4  0
 52 53  4  0
 50 54  4  0
 54 55  4  0
 55 56  4  0
 56 57  4  0
 15 58  4  0
 58 59  4  0
 59 60  4  0
 11 61  4  0
 61 62  4  0
  6  1  4  0
 60  9  4  0
 62  3  4  0
 10  4  4  0
 60 13  4  0
 37 16  4  0
 43 38  4  0
 57 45  4  0
 35 18  4  0
 56 41  4  0
 33 20  4  0
 53 48  4  0
 31 22  4  0
 57 49  4  0
 29 24  4  0
  1 63  1  0
  2 64  1  0
  6 65  1  0
  7 66  1  0
  8 67  1  0
 12 68  1  0
 14 69  1  0
 17 70  1  0
 19 71  1  0
 21 72  1  0
 23 73  1  0
 25 74  1  0
 26 75  1  0
 27 76  1  0
 28 77  1  0
 30 78  1  0
 32 79  1  0
 34 80  1  0
 36 81  1  0
 39 82  1  0
 40 83  1  0
 43 84  1  0
 44 85  1  0
 46 86  1  0
 47 87  1  0
 51 88  1  0
 52 89  1  0
 53 90  1  0
 54 91  1  0
 55 92  1  0
 58 93  1  0
 59 94  1  0
 61 95  1  0
 62 96  1  0
M  END
