
     RDKit          3D

 68 76  0  0  0  0  0  0  0  0999 V2000
   -4.9947   -4.1184   -2.4250 C   0  0  0  0  0  0  0  0  0  0  0  0
   -3.7669   -3.5446   -2.7245 C   0  0  0  0  0  0  0  0  0  0  0  0
   -3.2148   -2.5942   -1.8629 C   0  0  0  0  0  0  0  0  0  0  0  0
   -3.8732   -2.1895   -0.6767 C   0  0  0  0  0  0  0  0  0  0  0  0
   -5.1267   -2.7869   -0.3880 C   0  0  0  0  0  0  0  0  0  0  0  0
   -5.6692   -3.7417   -1.2648 C   0  0  0  0  0  0  0  0  0  0  0  0
   -5.8251   -2.4211    0.7719 C   0  0  0  0  0  0  0  0  0  0  0  0
   -5.3058   -1.4758    1.6512 C   0  0  0  0  0  0  0  0  0  0  0  0
   -4.0773   -0.8824    1.3813 C   0  0  0  0  0  0  0  0  0  0  0  0
   -3.3471   -1.2184    0.2263 C   0  0  0  0  0  0  0  0  0  0  0  0
   -2.0488   -0.5488   -0.0034 C   0  0  0  0  0  0  0  0  0  0  0  0
   -0.8663   -1.2230    0.3603 C   0  0  0  0  0  0  0  0  0  0  0  0
    0.4020   -0.6562    0.1577 C   0  0  0  0  0  0  0  0  0  0  0  0
    1.5758   -1.3385    0.5176 C   0  0  0  0  0  0  0  0  0  0  0  0
    2.8454   -0.7734    0.3100 C   0  0  0  0  0  0  0  0  0  0  0  0
    4.0197   -1.4567    0.6683 C   0  0  0  0  0  0  0  0  0  0  0  0
    5.2897   -0.8926    0.4603 C   0  0  0  0  0  0  0  0  0  0  0  0
    6.4636   -1.5769    0.8189 C   0  0  0  0  0  0  0  0  0  0  0  0
    7.7332   -1.0128    0.6108 C   0  0  0  0  0  0  0  0  0  0  0  0
    8.9073   -1.6962    0.9689 C   0  0  0  0  0  0  0  0  0  0  0  0
   10.1613   -1.1217    0.7555 C   0  0  0  0  0  0  0  0  0  0  0  0
   10.2579    0.1422    0.1819 C   0  0  0  0  0  0  0  0  0  0  0  0
    9.1005    0.8336   -0.1792 C   0  0  0  0  0  0  0  0  0  0  0  0
    7.8312    0.2689    0.0290 C   0  0  0  0  0  0  0  0  0  0  0  0
    6.6570    0.9521   -0.3289 C   0  0  0  0  0  0  0  0  0  0  0  0
    5.3875    0.3869   -0.1204 C   0  0  0  0  0  0  0  0  0  0  0  0
    4.2130    1.0703   -0.4785 C   0  0  0  0  0  0  0  0  0  0  0  0
    2.9429    0.5058   -0.2706 C   0  0  0  0  0  0  0  0  0  0  0  0
    1.7678    1.1883   -0.6288 C   0  0  0  0  0  0  0  0  0  0  0  0
    0.4988    0.6220   -0.4216 C   0  0  0  0  0  0  0  0  0  0  0  0
   -0.6762    1.3028   -0.7787 C   0  0  0  0  0  0  0  0  0  0  0  0
   -1.9524    0.7420   -0.5727 C   0  0  0  0  0  0  0  0  0  0  0  0
   -3.1439    1.5237   -0.9673 C   0  0  0  0  0  0  0  0  0  0  0  0
   -3.7482    1.2393   -2.2059 C   0  0  0  0  0  0  0  0  0  0  0  0
   -4.8740    1.9356   -2.6317 C   0  0  0  0  0  0  0  0  0  0  0  0
   -5.4128    2.9355   -1.8282 C   0  0  0  0  0  0  0  0  0  0  0  0
   -4.8361    3.2551   -0.5903 C   0  0  0  0  0  0  0  0  0  0  0  0
   -5.3944    4.2699    0.2055 C   0  0  0  0  0  0  0  0  0  0  0  0
   -4.8410    4.6020    1.4410 C   0  0  0  0  0  0  0  0  0  0  0  0
   -3.7209    3.9218    1.8984 C   0  0  0  0  0  0  0  0  0  0  0  0
   -3.1541    2.9110    1.1187 C   0  0  0  0  0  0  0  0  0  0  0  0
   -3.6898    2.5508   -0.1413 C   0  0  0  0  0  0  0  0  0  0  0  0
   -5.4304   -4.8566   -3.0926 H   0  0  0  0  0  0  0  0  0  0  0  0
   -3.2348   -3.8307   -3.6276 H   0  0  0  0  0  0  0  0  0  0  0  0
   -2.2528   -2.1632   -2.1329 H   0  0  0  0  0  0  0  0  0  0  0  0
   -6.6318   -4.2002   -1.0488 H   0  0  0  0  0  0  0  0  0  0  0  0
   -6.7889   -2.8714    0.9993 H   0  0  0  0  0  0  0  0  0  0  0  0
   -5.8598   -1.1975    2.5435 H   0  0  0  0  0  0  0  0  0  0  0  0
   -3.6863   -0.1409    2.0752 H   0  0  0  0  0  0  0  0  0  0  0  0
   -0.9466   -2.2147    0.8052 H   0  0  0  0  0  0  0  0  0  0  0  0
    1.4993   -2.3275    0.9663 H   0  0  0  0  0  0  0  0  0  0  0  0
    3.9431   -2.4455    1.1173 H   0  0  0  0  0  0  0  0  0  0  0  0
    6.3886   -2.5656    1.2679 H   0  0  0  0  0  0  0  0  0  0  0  0
    8.8526   -2.6851    1.4185 H   0  0  0  0  0  0  0  0  0  0  0  0
   11.0612   -1.6620    1.0376 H   0  0  0  0  0  0  0  0  0  0  0  0
   11.2333    0.5914    0.0149 H   0  0  0  0  0  0  0  0  0  0  0  0
    9.1964    1.8205   -0.6263 H   0  0  0  0  0  0  0  0  0  0  0  0
    6.7338    1.9410   -0.7773 H   0  0  0  0  0  0  0  0  0  0  0  0
    4.2888    2.0593   -0.9272 H   0  0  0  0  0  0  0  0  0  0  0  0
    1.8417    2.1775   -1.0775 H   0  0  0  0  0  0  0  0  0  0  0  0
   -0.6076    2.2946   -1.2252 H   0  0  0  0  0  0  0  0  0  0  0  0
   -3.3407    0.4569   -2.8430 H   0  0  0  0  0  0  0  0  0  0  0  0
   -5.3332    1.6948   -3.5865 H   0  0  0  0  0  0  0  0  0  0  0  0
   -6.2963    3.4651   -2.1775 H   0  0  0  0  0  0  0  0  0  0  0  0
   -6.2741    4.8121   -0.1348 H   0  0  0  0  0  0  0  0  0  0  0  0
   -5.2868    5.3887    2.0436 H   0  0  0  0  0  0  0  0  0  0  0  0
   -3.2845    4.1722    2.8615 H   0  0  0  0  0  0  0  0  0  0  0  0
   -2.2791    2.3973    1.5119 H   0  0  0  0  0  0  0  0  0  0  0  0
  1  2  4  0
  2  3  4  0
  3  4  4  0
  4  5  4  0
  5  6  4  0
  5  7  4  0
  7  8  4  0
  8  9  4  0
  9 10  4  0
 10 11  1  0
 11 12  4  0
 12 13  4  0
 13 14  4  0
 14 15  4  0
 15 16  4  0
 16 17  4  0
 17 18  4  0
 18 19  4  0
 19 20  4  0
 20 21  4  0
 21 22  4  0
 22 23  4  0
 23 24  4  0
 24 25  4  0
 25 26  4  0
 26 27  4  0
 27 28  4  0
 28 29  4  0
 29 30  4  0
 30 31  4  0
 31 32  4  0
 32 33  1  0
 33 34  4  0
 34 35  4  0
 35 36  4  0
 36 37  4  0
 37 38  4  0
 38 39  4  0
 39 40  4  0
 40 41  4  0
 41 42  4  0
  6  1  4  0
 32 11  4  0
 42 33  4  0
 10  4  4  0
 30 13  4  0
 42 37  4  0
 28 15  4  0
 26 17  4  0
 24 19  4  0
  1 43  1  0
  2 44  1  0
  3 45  1  0
  6 46  1  0
  7 47  1  0
  8 48  1  0
  9 49  1  0
 12 50  1  0
 14 51  1  0
 16 52  1  0
 18 53  1  0
 20 54  1  0
 21 55  1  0
 22 56  1  0
 23 57  1  0
 25 58  1  0
 27 59  1  0
 29 60  1  0
 31 61  1  0
 34 62  1  0
 35 63  1  0
 36 64  1  0
 38 65  1  0
 39 66  1  0
 40 67  1  0
 41 68  1  0
M  END
