
     RDKit          3D

 68 76  0  0  0  0  0  0  0  0999 V2000
   -6.6793    4.3548    1.2640 C   0  0  0  0  0  0  0  0  0  0  0  0
   -6.2664    3.8060    0.0488 C   0  0  0  0  0  0  0  0  0  0  0  0
   -5.0947    3.0357   -0.0294 C   0  0  0  0  0  0  0  0  0  0  0  0
   -4.6654    2.4772   -1.2418 C   0  0  0  0  0  0  0  0  0  0  0  0
   -3.4973    1.7119   -1.3019 C   0  0  0  0  0  0  0  0  0  0  0  0
   -2.7308    1.4794   -0.1527 C   0  0  0  0  0  0  0  0  0  0  0  0
   -1.4989    0.6699   -0.2074 C   0  0  0  0  0  0  0  0  0  0  0  0
   -0.2642    1.3147    0.0154 C   0  0  0  0  0  0  0  0  0  0  0  0
    0.9570    0.6228   -0.0230 C   0  0  0  0  0  0  0  0  0  0  0  0
    2.1801    1.2776    0.1995 C   0  0  0  0  0  0  0  0  0  0  0  0
    3.4007    0.5828    0.1631 C   0  0  0  0  0  0  0  0  0  0  0  0
    4.6241    1.2369    0.3859 C   0  0  0  0  0  0  0  0  0  0  0  0
    5.8445    0.5416    0.3504 C   0  0  0  0  0  0  0  0  0  0  0  0
    7.0675    1.1965    0.5732 C   0  0  0  0  0  0  0  0  0  0  0  0
    8.2876    0.5015    0.5379 C   0  0  0  0  0  0  0  0  0  0  0  0
    9.5104    1.1559    0.7607 C   0  0  0  0  0  0  0  0  0  0  0  0
   10.7146    0.4515    0.7223 C   0  0  0  0  0  0  0  0  0  0  0  0
   10.7119   -0.9151    0.4609 C   0  0  0  0  0  0  0  0  0  0  0  0
    9.5050   -1.5794    0.2375 C   0  0  0  0  0  0  0  0  0  0  0  0
    8.2847   -0.8844    0.2728 C   0  0  0  0  0  0  0  0  0  0  0  0
    7.0615   -1.5381    0.0500 C   0  0  0  0  0  0  0  0  0  0  0  0
    5.8415   -0.8418    0.0856 C   0  0  0  0  0  0  0  0  0  0  0  0
    4.6179   -1.4955   -0.1374 C   0  0  0  0  0  0  0  0  0  0  0  0
    3.3975   -0.8000   -0.1022 C   0  0  0  0  0  0  0  0  0  0  0  0
    2.1737   -1.4532   -0.3259 C   0  0  0  0  0  0  0  0  0  0  0  0
    0.9537   -0.7567   -0.2904 C   0  0  0  0  0  0  0  0  0  0  0  0
   -0.2710   -1.4062   -0.5147 C   0  0  0  0  0  0  0  0  0  0  0  0
   -1.5028   -0.7192   -0.4795 C   0  0  0  0  0  0  0  0  0  0  0  0
   -2.7408   -1.4864   -0.7177 C   0  0  0  0  0  0  0  0  0  0  0  0
   -2.9872   -2.0747   -1.9663 C   0  0  0  0  0  0  0  0  0  0  0  0
   -4.1567   -2.8041   -2.1984 C   0  0  0  0  0  0  0  0  0  0  0  0
   -5.1125   -2.9651   -1.1855 C   0  0  0  0  0  0  0  0  0  0  0  0
   -6.2945   -3.6919   -1.4020 C   0  0  0  0  0  0  0  0  0  0  0  0
   -7.2379   -3.8383   -0.3838 C   0  0  0  0  0  0  0  0  0  0  0  0
   -7.0115   -3.2606    0.8619 C   0  0  0  0  0  0  0  0  0  0  0  0
   -5.8404   -2.5372    1.0928 C   0  0  0  0  0  0  0  0  0  0  0  0
   -4.8808   -2.3816    0.0796 C   0  0  0  0  0  0  0  0  0  0  0  0
   -3.6967   -1.6560    0.2973 C   0  0  0  0  0  0  0  0  0  0  0  0
   -3.1601    2.0444    1.0605 C   0  0  0  0  0  0  0  0  0  0  0  0
   -4.3316    2.8172    1.1387 C   0  0  0  0  0  0  0  0  0  0  0  0
   -4.7615    3.3750    2.3538 C   0  0  0  0  0  0  0  0  0  0  0  0
   -5.9277    4.1393    2.4153 C   0  0  0  0  0  0  0  0  0  0  0  0
   -7.5886    4.9482    1.3102 H   0  0  0  0  0  0  0  0  0  0  0  0
   -6.8682    3.9818   -0.8399 H   0  0  0  0  0  0  0  0  0  0  0  0
   -5.2393    2.6300   -2.1528 H   0  0  0  0  0  0  0  0  0  0  0  0
   -3.1906    1.2907   -2.2570 H   0  0  0  0  0  0  0  0  0  0  0  0
   -0.2617    2.3862    0.2148 H   0  0  0  0  0  0  0  0  0  0  0  0
    2.1807    2.3467    0.4049 H   0  0  0  0  0  0  0  0  0  0  0  0
    4.6265    2.3061    0.5903 H   0  0  0  0  0  0  0  0  0  0  0  0
    7.0709    2.2657    0.7777 H   0  0  0  0  0  0  0  0  0  0  0  0
    9.5329    2.2236    0.9666 H   0  0  0  0  0  0  0  0  0  0  0  0
   11.6533    0.9708    0.8966 H   0  0  0  0  0  0  0  0  0  0  0  0
   11.6486   -1.4656    0.4305 H   0  0  0  0  0  0  0  0  0  0  0  0
    9.5236   -2.6479    0.0347 H   0  0  0  0  0  0  0  0  0  0  0  0
    7.0598   -2.6071   -0.1545 H   0  0  0  0  0  0  0  0  0  0  0  0
    4.6150   -2.5648   -0.3419 H   0  0  0  0  0  0  0  0  0  0  0  0
    2.1703   -2.5224   -0.5312 H   0  0  0  0  0  0  0  0  0  0  0  0
   -0.2753   -2.4780   -0.7118 H   0  0  0  0  0  0  0  0  0  0  0  0
   -2.2678   -1.9598   -2.7746 H   0  0  0  0  0  0  0  0  0  0  0  0
   -4.3165   -3.2427   -3.1806 H   0  0  0  0  0  0  0  0  0  0  0  0
   -6.4898   -4.1479   -2.3696 H   0  0  0  0  0  0  0  0  0  0  0  0
   -8.1497   -4.4009   -0.5651 H   0  0  0  0  0  0  0  0  0  0  0  0
   -7.7467   -3.3680    1.6550 H   0  0  0  0  0  0  0  0  0  0  0  0
   -5.6826   -2.0893    2.0714 H   0  0  0  0  0  0  0  0  0  0  0  0
   -3.5157   -1.2095    1.2736 H   0  0  0  0  0  0  0  0  0  0  0  0
   -2.5743    1.8680    1.9612 H   0  0  0  0  0  0  0  0  0  0  0  0
   -4.1891    3.2150    3.2645 H   0  0  0  0  0  0  0  0  0  0  0  0
   -6.2490    4.5640    3.3625 H   0  0  0  0  0  0  0  0  0  0  0  0
  1  2  4  0
  2  3  4  0
  3  4  4  0
  4  5  4  0
  5  6  4  0
  6  7  1  0
  7  8  4  0
  8  9  4  0
  9 10  4  0
 10 11  4  0
 11 12  4  0
 12 13  4  0
 13 14  4  0
 14 15  4  0
 15 16  4  0
 16 17  4  0
 17 18  4  0
 18 19  4  0
 19 20  4  0
 20 21  4  0
 21 22  4  0
 22 23  4  0
 23 24  4  0
 24 25  4  0
 25 26  4  0
 26 27  4  0
 27 28  4  0
 28 29  1  0
 29 30  4  0
 30 31  4  0
 31 32  4  0
 32 33  4  0
 33 34  4  0
 34 35  4  0
 35 36  4  0
 36 37  4  0
 37 38  4  0
  6 39  4  0
 39 40  4  0
 40 41  4  0
 41 42  4  0
 42  1  4  0
 40  3  4  0
 28  7  4  0
 38 29  4  0
 26  9  4  0
 37 32  4  0
 24 11  4  0
 22 13  4  0
 20 15  4  0
  1 43  1  0
  2 44  1  0
  4 45  1  0
  5 46  1  0
  8 47  1  0
 10 48  1  0
 12 49  1  0
 14 50  1  0
 16 51  1  0
 17 52  1  0
 18 53  1  0
 19 54  1  0
 21 55  1  0
 23 56  1  0
 25 57  1  0
 27 58  1  0
 30 59  1  0
 31 60  1  0
 33 61  1  0
 34 62  1  0
 35 63  1  0
 36 64  1  0
 38 65  1  0
 39 66  1  0
 41 67  1  0
 42 68  1  0
M  END
