
     RDKit          3D

 80 90  0  0  0  0  0  0  0  0999 V2000
   -7.2705   -5.6846    1.0471 C   0  0  0  0  0  0  0  0  0  0  0  0
   -6.5245   -5.2654   -0.0555 C   0  0  0  0  0  0  0  0  0  0  0  0
   -5.3985   -4.4416    0.1099 C   0  0  0  0  0  0  0  0  0  0  0  0
   -4.6384   -4.0087   -0.9892 C   0  0  0  0  0  0  0  0  0  0  0  0
   -3.5119   -3.1861   -0.8211 C   0  0  0  0  0  0  0  0  0  0  0  0
   -2.7537   -2.7512   -1.9176 C   0  0  0  0  0  0  0  0  0  0  0  0
   -1.6362   -1.9324   -1.7333 C   0  0  0  0  0  0  0  0  0  0  0  0
   -1.2455   -1.5251   -0.4501 C   0  0  0  0  0  0  0  0  0  0  0  0
   -0.0616   -0.6634   -0.2630 C   0  0  0  0  0  0  0  0  0  0  0  0
    1.2030   -1.1790   -0.6184 C   0  0  0  0  0  0  0  0  0  0  0  0
    2.3832   -0.4336   -0.4687 C   0  0  0  0  0  0  0  0  0  0  0  0
    3.6359   -0.9613   -0.8235 C   0  0  0  0  0  0  0  0  0  0  0  0
    4.8150   -0.2122   -0.6746 C   0  0  0  0  0  0  0  0  0  0  0  0
    6.0682   -0.7391   -1.0286 C   0  0  0  0  0  0  0  0  0  0  0  0
    7.2474    0.0103   -0.8804 C   0  0  0  0  0  0  0  0  0  0  0  0
    8.5003   -0.5178   -1.2345 C   0  0  0  0  0  0  0  0  0  0  0  0
    9.6793    0.2314   -1.0866 C   0  0  0  0  0  0  0  0  0  0  0  0
   10.9323   -0.2958   -1.4405 C   0  0  0  0  0  0  0  0  0  0  0  0
   12.0947    0.4613   -1.2876 C   0  0  0  0  0  0  0  0  0  0  0  0
   12.0196    1.7544   -0.7794 C   0  0  0  0  0  0  0  0  0  0  0  0
   10.7819    2.2922   -0.4233 C   0  0  0  0  0  0  0  0  0  0  0  0
    9.6031    1.5427   -0.5713 C   0  0  0  0  0  0  0  0  0  0  0  0
    8.3500    2.0696   -0.2175 C   0  0  0  0  0  0  0  0  0  0  0  0
    7.1712    1.3192   -0.3657 C   0  0  0  0  0  0  0  0  0  0  0  0
    5.9178    1.8459   -0.0115 C   0  0  0  0  0  0  0  0  0  0  0  0
    4.7389    1.0960   -0.1593 C   0  0  0  0  0  0  0  0  0  0  0  0
    3.4856    1.6217    0.1964 C   0  0  0  0  0  0  0  0  0  0  0  0
    2.3076    0.8704    0.0491 C   0  0  0  0  0  0  0  0  0  0  0  0
    1.0544    1.3915    0.4077 C   0  0  0  0  0  0  0  0  0  0  0  0
   -0.1369    0.6487    0.2645 C   0  0  0  0  0  0  0  0  0  0  0  0
   -1.4077    1.2821    0.6672 C   0  0  0  0  0  0  0  0  0  0  0  0
   -1.6424    1.6196    2.0074 C   0  0  0  0  0  0  0  0  0  0  0  0
   -2.8425    2.2201    2.3967 C   0  0  0  0  0  0  0  0  0  0  0  0
   -3.8423    2.5001    1.4543 C   0  0  0  0  0  0  0  0  0  0  0  0
   -5.0552    3.1013    1.8299 C   0  0  0  0  0  0  0  0  0  0  0  0
   -6.0569    3.3800    0.8853 C   0  0  0  0  0  0  0  0  0  0  0  0
   -7.2702    3.9822    1.2585 C   0  0  0  0  0  0  0  0  0  0  0  0
   -8.2563    4.2515    0.3081 C   0  0  0  0  0  0  0  0  0  0  0  0
   -8.0425    3.9215   -1.0266 C   0  0  0  0  0  0  0  0  0  0  0  0
   -6.8423    3.3229   -1.4131 C   0  0  0  0  0  0  0  0  0  0  0  0
   -5.8399    3.0466   -0.4687 C   0  0  0  0  0  0  0  0  0  0  0  0
   -4.6267    2.4455   -0.8429 C   0  0  0  0  0  0  0  0  0  0  0  0
   -3.6238    2.1701    0.1012 C   0  0  0  0  0  0  0  0  0  0  0  0
   -2.4080    1.5714   -0.2749 C   0  0  0  0  0  0  0  0  0  0  0  0
   -2.0037   -1.9684    0.6456 C   0  0  0  0  0  0  0  0  0  0  0  0
   -3.1341   -2.7878    0.4773 C   0  0  0  0  0  0  0  0  0  0  0  0
   -3.8961   -3.2174    1.5761 C   0  0  0  0  0  0  0  0  0  0  0  0
   -5.0232   -4.0390    1.4095 C   0  0  0  0  0  0  0  0  0  0  0  0
   -5.7849   -4.4684    2.5087 C   0  0  0  0  0  0  0  0  0  0  0  0
   -6.9013   -5.2861    2.3281 C   0  0  0  0  0  0  0  0  0  0  0  0
   -8.1393   -6.3220    0.9045 H   0  0  0  0  0  0  0  0  0  0  0  0
   -6.8295   -5.5878   -1.0485 H   0  0  0  0  0  0  0  0  0  0  0  0
   -4.9293   -4.3163   -1.9917 H   0  0  0  0  0  0  0  0  0  0  0  0
   -3.0294   -3.0435   -2.9282 H   0  0  0  0  0  0  0  0  0  0  0  0
   -1.0735   -1.6044   -2.6051 H   0  0  0  0  0  0  0  0  0  0  0  0
    1.2634   -2.1939   -1.0115 H   0  0  0  0  0  0  0  0  0  0  0  0
    3.6936   -1.9728   -1.2220 H   0  0  0  0  0  0  0  0  0  0  0  0
    6.1271   -1.7507   -1.4265 H   0  0  0  0  0  0  0  0  0  0  0  0
    8.5595   -1.5294   -1.6319 H   0  0  0  0  0  0  0  0  0  0  0  0
   11.0113   -1.3046   -1.8394 H   0  0  0  0  0  0  0  0  0  0  0  0
   13.0575    0.0405   -1.5655 H   0  0  0  0  0  0  0  0  0  0  0  0
   12.9235    2.3458   -0.6595 H   0  0  0  0  0  0  0  0  0  0  0  0
   10.7434    3.3047   -0.0278 H   0  0  0  0  0  0  0  0  0  0  0  0
    8.2919    3.0812    0.1801 H   0  0  0  0  0  0  0  0  0  0  0  0
    5.8591    2.8575    0.3865 H   0  0  0  0  0  0  0  0  0  0  0  0
    3.4256    2.6329    0.5953 H   0  0  0  0  0  0  0  0  0  0  0  0
    0.9954    2.4061    0.8015 H   0  0  0  0  0  0  0  0  0  0  0  0
   -0.8892    1.4070    2.7636 H   0  0  0  0  0  0  0  0  0  0  0  0
   -2.9905    2.4650    3.4461 H   0  0  0  0  0  0  0  0  0  0  0  0
   -5.2233    3.3558    2.8747 H   0  0  0  0  0  0  0  0  0  0  0  0
   -7.4562    4.2463    2.2972 H   0  0  0  0  0  0  0  0  0  0  0  0
   -9.1901    4.7177    0.6112 H   0  0  0  0  0  0  0  0  0  0  0  0
   -8.8090    4.1288   -1.7685 H   0  0  0  0  0  0  0  0  0  0  0  0
   -6.6941    3.0720   -2.4610 H   0  0  0  0  0  0  0  0  0  0  0  0
   -4.4614    2.1836   -1.8863 H   0  0  0  0  0  0  0  0  0  0  0  0
   -2.2371    1.3198   -1.3204 H   0  0  0  0  0  0  0  0  0  0  0  0
   -1.7093   -1.6644    1.6488 H   0  0  0  0  0  0  0  0  0  0  0  0
   -3.6090   -2.9033    2.5780 H   0  0  0  0  0  0  0  0  0  0  0  0
   -5.5117   -4.1660    3.5173 H   0  0  0  0  0  0  0  0  0  0  0  0
   -7.4814   -5.6113    3.1878 H   0  0  0  0  0  0  0  0  0  0  0  0
  1  2  4  0
  2  3  4  0
  3  4  4  0
  4  5  4  0
  5  6  4  0
  6  7  4  0
  7  8  4  0
  8  9  1  0
  9 10  4  0
 10 11  4  0
 11 12  4  0
 12 13  4  0
 13 14  4  0
 14 15  4  0
 15 16  4  0
 16 17  4  0
 17 18  4  0
 18 19  4  0
 19 20  4  0
 20 21  4  0
 21 22  4  0
 22 23  4  0
 23 24  4  0
 24 25  4  0
 25 26  4  0
 26 27  4  0
 27 28  4  0
 28 29  4  0
 29 30  4  0
 30 31  1  0
 31 32  4  0
 32 33  4  0
 33 34  4  0
 34 35  4  0
 35 36  4  0
 36 37  4  0
 37 38  4  0
 38 39  4  0
 39 40  4  0
 40 41  4  0
 41 42  4  0
 42 43  4  0
 43 44  4  0
  8 45  4  0
 45 46  4  0
 46 47  4  0
 47 48  4  0
 48 49  4  0
 49 50  4  0
 50  1  4  0
 48  3  4  0
 46  5  4  0
 30  9  4  0
 44 31  4  0
 28 11  4  0
 43 34  4  0
 26 13  4  0
 41 36  4  0
 24 15  4  0
 22 17  4  0
  1 51  1  0
  2 52  1  0
  4 53  1  0
  6 54  1  0
  7 55  1  0
 10 56  1  0
 12 57  1  0
 14 58  1  0
 16 59  1  0
 18 60  1  0
 19 61  1  0
 20 62  1  0
 21 63  1  0
 23 64  1  0
 25 65  1  0
 27 66  1  0
 29 67  1  0
 32 68  1  0
 33 69  1  0
 35 70  1  0
 37 71  1  0
 38 72  1  0
 39 73  1  0
 40 74  1  0
 42 75  1  0
 44 76  1  0
 45 77  1  0
 47 78  1  0
 49 79  1  0
 50 80  1  0
M  END
