
     RDKit          3D

 80 90  0  0  0  0  0  0  0  0999 V2000
   -4.3829    3.3905   -3.0653 C   0  0  0  0  0  0  0  0  0  0  0  0
   -3.1823    2.7208   -3.2399 C   0  0  0  0  0  0  0  0  0  0  0  0
   -2.5445    2.1425   -2.1396 C   0  0  0  0  0  0  0  0  0  0  0  0
   -3.0852    2.2052   -0.8309 C   0  0  0  0  0  0  0  0  0  0  0  0
   -4.2949    2.9188   -0.6752 C   0  0  0  0  0  0  0  0  0  0  0  0
   -4.9329    3.4912   -1.7900 C   0  0  0  0  0  0  0  0  0  0  0  0
   -4.8576    3.0659    0.5967 C   0  0  0  0  0  0  0  0  0  0  0  0
   -4.2325    2.5619    1.7417 C   0  0  0  0  0  0  0  0  0  0  0  0
   -4.8088    2.7836    3.0048 C   0  0  0  0  0  0  0  0  0  0  0  0
   -4.1947    2.3240    4.1670 C   0  0  0  0  0  0  0  0  0  0  0  0
   -2.9915    1.6415    4.0795 C   0  0  0  0  0  0  0  0  0  0  0  0
   -2.4146    1.4101    2.8284 C   0  0  0  0  0  0  0  0  0  0  0  0
   -3.0219    1.8426    1.6238 C   0  0  0  0  0  0  0  0  0  0  0  0
   -2.4738    1.6075    0.3207 C   0  0  0  0  0  0  0  0  0  0  0  0
   -1.2615    0.7552    0.1631 C   0  0  0  0  0  0  0  0  0  0  0  0
    0.0012    1.3825    0.1710 C   0  0  0  0  0  0  0  0  0  0  0  0
    1.1919    0.6549    0.0186 C   0  0  0  0  0  0  0  0  0  0  0  0
    2.4445    1.2904    0.0232 C   0  0  0  0  0  0  0  0  0  0  0  0
    3.6366    0.5623   -0.1300 C   0  0  0  0  0  0  0  0  0  0  0  0
    4.8903    1.1971   -0.1267 C   0  0  0  0  0  0  0  0  0  0  0  0
    6.0822    0.4684   -0.2790 C   0  0  0  0  0  0  0  0  0  0  0  0
    7.3360    1.1032   -0.2757 C   0  0  0  0  0  0  0  0  0  0  0  0
    8.5270    0.3739   -0.4276 C   0  0  0  0  0  0  0  0  0  0  0  0
    9.7804    1.0081   -0.4242 C   0  0  0  0  0  0  0  0  0  0  0  0
   10.9550    0.2697   -0.5761 C   0  0  0  0  0  0  0  0  0  0  0  0
   10.8918   -1.1112   -0.7333 C   0  0  0  0  0  0  0  0  0  0  0  0
    9.6540   -1.7559   -0.7388 C   0  0  0  0  0  0  0  0  0  0  0  0
    8.4629   -1.0265   -0.5870 C   0  0  0  0  0  0  0  0  0  0  0  0
    7.2092   -1.6601   -0.5904 C   0  0  0  0  0  0  0  0  0  0  0  0
    6.0184   -0.9297   -0.4385 C   0  0  0  0  0  0  0  0  0  0  0  0
    4.7648   -1.5640   -0.4426 C   0  0  0  0  0  0  0  0  0  0  0  0
    3.5733   -0.8351   -0.2906 C   0  0  0  0  0  0  0  0  0  0  0  0
    2.3198   -1.4698   -0.2958 C   0  0  0  0  0  0  0  0  0  0  0  0
    1.1289   -0.7411   -0.1441 C   0  0  0  0  0  0  0  0  0  0  0  0
   -0.1227   -1.3760   -0.1512 C   0  0  0  0  0  0  0  0  0  0  0  0
   -1.3248   -0.6553    0.0017 C   0  0  0  0  0  0  0  0  0  0  0  0
   -2.6085   -1.4120   -0.0129 C   0  0  0  0  0  0  0  0  0  0  0  0
   -3.1250   -1.9738    1.2015 C   0  0  0  0  0  0  0  0  0  0  0  0
   -2.4331   -1.9647    2.4385 C   0  0  0  0  0  0  0  0  0  0  0  0
   -2.9779   -2.5121    3.6031 C   0  0  0  0  0  0  0  0  0  0  0  0
   -4.2352   -3.0943    3.5676 C   0  0  0  0  0  0  0  0  0  0  0  0
   -4.9377   -3.1349    2.3660 C   0  0  0  0  0  0  0  0  0  0  0  0
   -4.3946   -2.5942    1.1869 C   0  0  0  0  0  0  0  0  0  0  0  0
   -5.1135   -2.6806   -0.0095 C   0  0  0  0  0  0  0  0  0  0  0  0
   -4.5909   -2.2115   -1.2189 C   0  0  0  0  0  0  0  0  0  0  0  0
   -5.3282   -2.3704   -2.4056 C   0  0  0  0  0  0  0  0  0  0  0  0
   -4.8200   -1.9476   -3.6312 C   0  0  0  0  0  0  0  0  0  0  0  0
   -3.5623   -1.3683   -3.6855 C   0  0  0  0  0  0  0  0  0  0  0  0
   -2.8256   -1.1991   -2.5107 C   0  0  0  0  0  0  0  0  0  0  0  0
   -3.3214   -1.5919   -1.2431 C   0  0  0  0  0  0  0  0  0  0  0  0
   -4.8889    3.8393   -3.9152 H   0  0  0  0  0  0  0  0  0  0  0  0
   -2.7376    2.6417   -4.2279 H   0  0  0  0  0  0  0  0  0  0  0  0
   -1.5997    1.6351   -2.3192 H   0  0  0  0  0  0  0  0  0  0  0  0
   -5.8705    4.0300   -1.6695 H   0  0  0  0  0  0  0  0  0  0  0  0
   -5.7933    3.6128    0.7020 H   0  0  0  0  0  0  0  0  0  0  0  0
   -5.7483    3.3250    3.0932 H   0  0  0  0  0  0  0  0  0  0  0  0
   -4.6545    2.5021    5.1346 H   0  0  0  0  0  0  0  0  0  0  0  0
   -2.4980    1.2835    4.9786 H   0  0  0  0  0  0  0  0  0  0  0  0
   -1.4640    0.8829    2.8045 H   0  0  0  0  0  0  0  0  0  0  0  0
    0.0451    2.4643    0.2968 H   0  0  0  0  0  0  0  0  0  0  0  0
    2.4920    2.3710    0.1475 H   0  0  0  0  0  0  0  0  0  0  0  0
    4.9384    2.2777   -0.0034 H   0  0  0  0  0  0  0  0  0  0  0  0
    7.3878    2.1836   -0.1528 H   0  0  0  0  0  0  0  0  0  0  0  0
    9.8503    2.0867   -0.3026 H   0  0  0  0  0  0  0  0  0  0  0  0
   11.9179    0.7739   -0.5716 H   0  0  0  0  0  0  0  0  0  0  0  0
   11.8052   -1.6882   -0.8518 H   0  0  0  0  0  0  0  0  0  0  0  0
    9.6253   -2.8361   -0.8629 H   0  0  0  0  0  0  0  0  0  0  0  0
    7.1604   -2.7405   -0.7134 H   0  0  0  0  0  0  0  0  0  0  0  0
    4.7145   -2.6443   -0.5671 H   0  0  0  0  0  0  0  0  0  0  0  0
    2.2698   -2.5503   -0.4201 H   0  0  0  0  0  0  0  0  0  0  0  0
   -0.1755   -2.4574   -0.2770 H   0  0  0  0  0  0  0  0  0  0  0  0
   -1.4402   -1.5268    2.5086 H   0  0  0  0  0  0  0  0  0  0  0  0
   -2.4160   -2.4772    4.5321 H   0  0  0  0  0  0  0  0  0  0  0  0
   -4.6696   -3.5174    4.4689 H   0  0  0  0  0  0  0  0  0  0  0  0
   -5.9211   -3.6004    2.3546 H   0  0  0  0  0  0  0  0  0  0  0  0
   -6.0947   -3.1531   -0.0044 H   0  0  0  0  0  0  0  0  0  0  0  0
   -6.3117   -2.8350   -2.3831 H   0  0  0  0  0  0  0  0  0  0  0  0
   -5.4026   -2.0783   -4.5385 H   0  0  0  0  0  0  0  0  0  0  0  0
   -3.1493   -1.0431   -4.6362 H   0  0  0  0  0  0  0  0  0  0  0  0
   -1.8380   -0.7531   -2.5986 H   0  0  0  0  0  0  0  0  0  0  0  0
  1  2  4  0
  2  3  4  0
  3  4  4  0
  4  5  4  0
  5  6  4  0
  5  7  4  0
  7  8  4  0
  8  9  4  0
  9 10  4  0
 10 11  4  0
 11 12  4  0
 12 13  4  0
 13 14  4  0
 14 15  1  0
 15 16  4  0
 16 17  4  0
 17 18  4  0
 18 19  4  0
 19 20  4  0
 20 21  4  0
 21 22  4  0
 22 23  4  0
 23 24  4  0
 24 25  4  0
 25 26  4  0
 26 27  4  0
 27 28  4  0
 28 29  4  0
 29 30  4  0
 30 31  4  0
 31 32  4  0
 32 33  4  0
 33 34  4  0
 34 35  4  0
 35 36  4  0
 36 37  1  0
 37 38  4  0
 38 39  4  0
 39 40  4  0
 40 41  4  0
 41 42  4  0
 42 43  4  0
 43 44  4  0
 44 45  4  0
 45 46  4  0
 46 47  4  0
 47 48  4  0
 48 49  4  0
 49 50  4  0
  6  1  4  0
 13  8  4  0
 36 15  4  0
 50 37  4  0
 14  4  4  0
 34 17  4  0
 43 38  4  0
 50 45  4  0
 32 19  4  0
 30 21  4  0
 28 23  4  0
  1 51  1  0
  2 52  1  0
  3 53  1  0
  6 54  1  0
  7 55  1  0
  9 56  1  0
 10 57  1  0
 11 58  1  0
 12 59  1  0
 16 60  1  0
 18 61  1  0
 20 62  1  0
 22 63  1  0
 24 64  1  0
 25 65  1  0
 26 66  1  0
 27 67  1  0
 29 68  1  0
 31 69  1  0
 33 70  1  0
 35 71  1  0
 39 72  1  0
 40 73  1  0
 41 74  1  0
 42 75  1  0
 44 76  1  0
 46 77  1  0
 47 78  1  0
 48 79  1  0
 49 80  1  0
M  END
