
     RDKit          3D

 80 90  0  0  0  0  0  0  0  0999 V2000
   -7.1366   -6.3768    1.1442 C   0  0  0  0  0  0  0  0  0  0  0  0
   -6.2266   -7.0211    0.3120 C   0  0  0  0  0  0  0  0  0  0  0  0
   -5.0279   -6.3928   -0.0286 C   0  0  0  0  0  0  0  0  0  0  0  0
   -4.7248   -5.1109    0.4592 C   0  0  0  0  0  0  0  0  0  0  0  0
   -3.5235   -4.4651    0.1242 C   0  0  0  0  0  0  0  0  0  0  0  0
   -3.2220   -3.1821    0.6105 C   0  0  0  0  0  0  0  0  0  0  0  0
   -2.0219   -2.5333    0.2714 C   0  0  0  0  0  0  0  0  0  0  0  0
   -1.7194   -1.2468    0.7496 C   0  0  0  0  0  0  0  0  0  0  0  0
   -0.4551   -0.5862    0.3747 C   0  0  0  0  0  0  0  0  0  0  0  0
    0.7542   -1.1403    0.8445 C   0  0  0  0  0  0  0  0  0  0  0  0
    2.0022   -0.5730    0.5418 C   0  0  0  0  0  0  0  0  0  0  0  0
    3.1990   -1.1338    1.0183 C   0  0  0  0  0  0  0  0  0  0  0  0
    4.4471   -0.5659    0.7123 C   0  0  0  0  0  0  0  0  0  0  0  0
    5.6444   -1.1263    1.1881 C   0  0  0  0  0  0  0  0  0  0  0  0
    6.8927   -0.5591    0.8808 C   0  0  0  0  0  0  0  0  0  0  0  0
    8.0896   -1.1203    1.3569 C   0  0  0  0  0  0  0  0  0  0  0  0
    9.3378   -0.5537    1.0496 C   0  0  0  0  0  0  0  0  0  0  0  0
   10.5351   -1.1142    1.5251 C   0  0  0  0  0  0  0  0  0  0  0  0
   11.7674   -0.5392    1.2107 C   0  0  0  0  0  0  0  0  0  0  0  0
   11.8188    0.6027    0.4175 C   0  0  0  0  0  0  0  0  0  0  0  0
   10.6381    1.1713   -0.0625 C   0  0  0  0  0  0  0  0  0  0  0  0
    9.3901    0.6043    0.2452 C   0  0  0  0  0  0  0  0  0  0  0  0
    8.1928    1.1646   -0.2302 C   0  0  0  0  0  0  0  0  0  0  0  0
    6.9448    0.5970    0.0780 C   0  0  0  0  0  0  0  0  0  0  0  0
    5.7470    1.1575   -0.3971 C   0  0  0  0  0  0  0  0  0  0  0  0
    4.4988    0.5903   -0.0895 C   0  0  0  0  0  0  0  0  0  0  0  0
    3.3009    1.1511   -0.5638 C   0  0  0  0  0  0  0  0  0  0  0  0
    2.0532    0.5829   -0.2560 C   0  0  0  0  0  0  0  0  0  0  0  0
    0.8540    1.1417   -0.7270 C   0  0  0  0  0  0  0  0  0  0  0  0
   -0.4048    0.5796   -0.4267 C   0  0  0  0  0  0  0  0  0  0  0  0
   -1.6118    1.2317   -0.9706 C   0  0  0  0  0  0  0  0  0  0  0  0
   -1.9822    2.5186   -0.5439 C   0  0  0  0  0  0  0  0  0  0  0  0
   -3.1275    3.1618   -1.0465 C   0  0  0  0  0  0  0  0  0  0  0  0
   -3.4961    4.4463   -0.6128 C   0  0  0  0  0  0  0  0  0  0  0  0
   -4.6408    5.0883   -1.1137 C   0  0  0  0  0  0  0  0  0  0  0  0
   -5.0095    6.3726   -0.6799 C   0  0  0  0  0  0  0  0  0  0  0  0
   -6.1499    6.9979   -1.1864 C   0  0  0  0  0  0  0  0  0  0  0  0
   -6.9361    6.3479   -2.1327 C   0  0  0  0  0  0  0  0  0  0  0  0
   -6.5829    5.0717   -2.5739 C   0  0  0  0  0  0  0  0  0  0  0  0
   -5.4381    4.4289   -2.0735 C   0  0  0  0  0  0  0  0  0  0  0  0
   -5.0693    3.1444   -2.5068 C   0  0  0  0  0  0  0  0  0  0  0  0
   -3.9242    2.5031   -2.0049 C   0  0  0  0  0  0  0  0  0  0  0  0
   -3.5550    1.2203   -2.4358 C   0  0  0  0  0  0  0  0  0  0  0  0
   -2.4128    0.5953   -1.9269 C   0  0  0  0  0  0  0  0  0  0  0  0
   -2.6439   -0.6181    1.5927 C   0  0  0  0  0  0  0  0  0  0  0  0
   -3.8417   -1.2489    1.9386 C   0  0  0  0  0  0  0  0  0  0  0  0
   -4.1441   -2.5298    1.4542 C   0  0  0  0  0  0  0  0  0  0  0  0
   -5.3455   -3.1751    1.7905 C   0  0  0  0  0  0  0  0  0  0  0  0
   -5.6480   -4.4573    1.3033 C   0  0  0  0  0  0  0  0  0  0  0  0
   -6.8496   -5.1031    1.6373 C   0  0  0  0  0  0  0  0  0  0  0  0
   -8.0708   -6.8644    1.4105 H   0  0  0  0  0  0  0  0  0  0  0  0
   -6.4484   -8.0129   -0.0731 H   0  0  0  0  0  0  0  0  0  0  0  0
   -4.3294   -6.9123   -0.6807 H   0  0  0  0  0  0  0  0  0  0  0  0
   -2.8123   -4.9690   -0.5277 H   0  0  0  0  0  0  0  0  0  0  0  0
   -1.3114   -3.0311   -0.3869 H   0  0  0  0  0  0  0  0  0  0  0  0
    0.7134   -2.0317    1.4705 H   0  0  0  0  0  0  0  0  0  0  0  0
    3.1577   -2.0284    1.6376 H   0  0  0  0  0  0  0  0  0  0  0  0
    5.6044   -2.0196    1.8090 H   0  0  0  0  0  0  0  0  0  0  0  0
    8.0501   -2.0136    1.9776 H   0  0  0  0  0  0  0  0  0  0  0  0
   10.5156   -2.0067    2.1466 H   0  0  0  0  0  0  0  0  0  0  0  0
   12.6856   -0.9837    1.5857 H   0  0  0  0  0  0  0  0  0  0  0  0
   12.7773    1.0522    0.1714 H   0  0  0  0  0  0  0  0  0  0  0  0
   10.6986    2.0639   -0.6812 H   0  0  0  0  0  0  0  0  0  0  0  0
    8.2341    2.0580   -0.8507 H   0  0  0  0  0  0  0  0  0  0  0  0
    5.7874    2.0513   -1.0172 H   0  0  0  0  0  0  0  0  0  0  0  0
    3.3405    2.0456   -1.1834 H   0  0  0  0  0  0  0  0  0  0  0  0
    0.8935    2.0331   -1.3531 H   0  0  0  0  0  0  0  0  0  0  0  0
   -1.3697    3.0230    0.2020 H   0  0  0  0  0  0  0  0  0  0  0  0
   -2.8820    4.9554    0.1277 H   0  0  0  0  0  0  0  0  0  0  0  0
   -4.4078    6.8968    0.0593 H   0  0  0  0  0  0  0  0  0  0  0  0
   -6.4230    7.9916   -0.8413 H   0  0  0  0  0  0  0  0  0  0  0  0
   -7.8247    6.8329   -2.5283 H   0  0  0  0  0  0  0  0  0  0  0  0
   -7.2101    4.5798   -3.3141 H   0  0  0  0  0  0  0  0  0  0  0  0
   -5.6841    2.6348   -3.2464 H   0  0  0  0  0  0  0  0  0  0  0  0
   -4.1560    0.6918   -3.1724 H   0  0  0  0  0  0  0  0  0  0  0  0
   -2.1546   -0.4008   -2.2808 H   0  0  0  0  0  0  0  0  0  0  0  0
   -2.4396    0.3770    1.9825 H   0  0  0  0  0  0  0  0  0  0  0  0
   -4.5394   -0.7255    2.5884 H   0  0  0  0  0  0  0  0  0  0  0  0
   -6.0575   -2.6704    2.4410 H   0  0  0  0  0  0  0  0  0  0  0  0
   -7.5737   -4.6155    2.2862 H   0  0  0  0  0  0  0  0  0  0  0  0
  1  2  4  0
  2  3  4  0
  3  4  4  0
  4  5  4  0
  5  6  4  0
  6  7  4  0
  7  8  4  0
  8  9  1  0
  9 10  4  0
 10 11  4  0
 11 12  4  0
 12 13  4  0
 13 14  4  0
 14 15  4  0
 15 16  4  0
 16 17  4  0
 17 18  4  0
 18 19  4  0
 19 20  4  0
 20 21  4  0
 21 22  4  0
 22 23  4  0
 23 24  4  0
 24 25  4  0
 25 26  4  0
 26 27  4  0
 27 28  4  0
 28 29  4  0
 29 30  4  0
 30 31  1  0
 31 32  4  0
 32 33  4  0
 33 34  4  0
 34 35  4  0
 35 36  4  0
 36 37  4  0
 37 38  4  0
 38 39  4  0
 39 40  4  0
 40 41  4  0
 41 42  4  0
 42 43  4  0
 43 44  4  0
  8 45  4  0
 45 46  4  0
 46 47  4  0
 47 48  4  0
 48 49  4  0
 49 50  4  0
 50  1  4  0
 49  4  4  0
 47  6  4  0
 30  9  4  0
 44 31  4  0
 28 11  4  0
 42 33  4  0
 26 13  4  0
 40 35  4  0
 24 15  4  0
 22 17  4  0
  1 51  1  0
  2 52  1  0
  3 53  1  0
  5 54  1  0
  7 55  1  0
 10 56  1  0
 12 57  1  0
 14 58  1  0
 16 59  1  0
 18 60  1  0
 19 61  1  0
 20 62  1  0
 21 63  1  0
 23 64  1  0
 25 65  1  0
 27 66  1  0
 29 67  1  0
 32 68  1  0
 34 69  1  0
 36 70  1  0
 37 71  1  0
 38 72  1  0
 39 73  1  0
 41 74  1  0
 43 75  1  0
 44 76  1  0
 45 77  1  0
 46 78  1  0
 48 79  1  0
 50 80  1  0
M  END
