
     RDKit          3D

100114  0  0  0  0  0  0  0  0999 V2000
   -8.8173   -9.6737   -2.2344 C   0  0  0  0  0  0  0  0  0  0  0  0
   -7.8130   -9.2490   -1.3633 C   0  0  0  0  0  0  0  0  0  0  0  0
   -7.2369   -7.9752   -1.5005 C   0  0  0  0  0  0  0  0  0  0  0  0
   -6.2261   -7.5262   -0.6370 C   0  0  0  0  0  0  0  0  0  0  0  0
   -5.6548   -6.2673   -0.7706 C   0  0  0  0  0  0  0  0  0  0  0  0
   -4.6880   -5.8833    0.0828 N   0  0  0  0  0  0  0  0  0  0  0  0
   -4.1618   -4.6554   -0.0841 C   0  0  0  0  0  0  0  0  0  0  0  0
   -3.1594   -4.2141    0.7713 C   0  0  0  0  0  0  0  0  0  0  0  0
   -2.5831   -2.9394    0.6447 C   0  0  0  0  0  0  0  0  0  0  0  0
   -1.5774   -2.4913    1.5149 C   0  0  0  0  0  0  0  0  0  0  0  0
   -1.0356   -1.2084    1.3838 C   0  0  0  0  0  0  0  0  0  0  0  0
   -1.4757   -0.3428    0.3751 C   0  0  0  0  0  0  0  0  0  0  0  0
   -0.9535    1.0341    0.2624 C   0  0  0  0  0  0  0  0  0  0  0  0
   -1.8560    2.0976    0.4924 C   0  0  0  0  0  0  0  0  0  0  0  0
   -1.4647    3.4436    0.4217 C   0  0  0  0  0  0  0  0  0  0  0  0
   -2.3759    4.4874    0.6536 C   0  0  0  0  0  0  0  0  0  0  0  0
   -1.9825    5.8340    0.5788 C   0  0  0  0  0  0  0  0  0  0  0  0
   -2.8934    6.8786    0.8097 C   0  0  0  0  0  0  0  0  0  0  0  0
   -2.4996    8.2252    0.7339 C   0  0  0  0  0  0  0  0  0  0  0  0
   -3.4108    9.2697    0.9651 C   0  0  0  0  0  0  0  0  0  0  0  0
   -3.0167   10.6158    0.8891 C   0  0  0  0  0  0  0  0  0  0  0  0
   -3.9270   11.6604    1.1200 C   0  0  0  0  0  0  0  0  0  0  0  0
   -3.5200   12.9931    1.0407 C   0  0  0  0  0  0  0  0  0  0  0  0
   -2.1986   13.2984    0.7298 C   0  0  0  0  0  0  0  0  0  0  0  0
   -1.2823   12.2715    0.4976 C   0  0  0  0  0  0  0  0  0  0  0  0
   -1.6767   10.9255    0.5737 C   0  0  0  0  0  0  0  0  0  0  0  0
   -0.7667    9.8807    0.3429 C   0  0  0  0  0  0  0  0  0  0  0  0
   -1.1620    8.5344    0.4192 C   0  0  0  0  0  0  0  0  0  0  0  0
   -0.2515    7.4895    0.1883 C   0  0  0  0  0  0  0  0  0  0  0  0
   -0.6455    6.1431    0.2646 C   0  0  0  0  0  0  0  0  0  0  0  0
    0.2645    5.0976    0.0347 C   0  0  0  0  0  0  0  0  0  0  0  0
   -0.1306    3.7509    0.1115 C   0  0  0  0  0  0  0  0  0  0  0  0
    0.7754    2.7018   -0.1160 C   0  0  0  0  0  0  0  0  0  0  0  0
    0.3944    1.3417   -0.0454 C   0  0  0  0  0  0  0  0  0  0  0  0
    1.4271    0.3196   -0.3213 C   0  0  0  0  0  0  0  0  0  0  0  0
    1.3079   -0.5637   -1.4019 C   0  0  0  0  0  0  0  0  0  0  0  0
    2.3147   -1.4919   -1.6870 C   0  0  0  0  0  0  0  0  0  0  0  0
    3.4769   -1.5541   -0.9044 C   0  0  0  0  0  0  0  0  0  0  0  0
    4.5079   -2.4645   -1.1852 C   0  0  0  0  0  0  0  0  0  0  0  0
    5.6707   -2.5147   -0.4260 C   0  0  0  0  0  0  0  0  0  0  0  0
    6.6349   -3.3985   -0.7449 N   0  0  0  0  0  0  0  0  0  0  0  0
    7.7458   -3.4099    0.0143 C   0  0  0  0  0  0  0  0  0  0  0  0
    8.7651   -4.3066   -0.2780 C   0  0  0  0  0  0  0  0  0  0  0  0
    9.9436   -4.3592    0.4815 C   0  0  0  0  0  0  0  0  0  0  0  0
   10.9729   -5.2671    0.1839 C   0  0  0  0  0  0  0  0  0  0  0  0
   12.1363   -5.3010    0.9538 C   0  0  0  0  0  0  0  0  0  0  0  0
   12.2847   -4.4294    2.0286 C   0  0  0  0  0  0  0  0  0  0  0  0
   11.2698   -3.5220    2.3356 C   0  0  0  0  0  0  0  0  0  0  0  0
   10.0937   -3.4768    1.5694 C   0  0  0  0  0  0  0  0  0  0  0  0
    9.0600   -2.5734    1.8590 C   0  0  0  0  0  0  0  0  0  0  0  0
    7.8958   -2.5266    1.1031 C   0  0  0  0  0  0  0  0  0  0  0  0
    6.9331   -1.6416    1.4212 N   0  0  0  0  0  0  0  0  0  0  0  0
    5.8197   -1.6321    0.6632 C   0  0  0  0  0  0  0  0  0  0  0  0
    4.7947   -0.7378    0.9529 C   0  0  0  0  0  0  0  0  0  0  0  0
    3.6196   -0.6766    0.1847 C   0  0  0  0  0  0  0  0  0  0  0  0
    2.5911    0.2434    0.4667 C   0  0  0  0  0  0  0  0  0  0  0  0
   -2.4747   -0.8021   -0.5027 C   0  0  0  0  0  0  0  0  0  0  0  0
   -3.0347   -2.0867   -0.3784 C   0  0  0  0  0  0  0  0  0  0  0  0
   -4.0429   -2.5404   -1.2437 C   0  0  0  0  0  0  0  0  0  0  0  0
   -4.6096   -3.8024   -1.1131 C   0  0  0  0  0  0  0  0  0  0  0  0
   -5.5761   -4.1864   -1.9665 N   0  0  0  0  0  0  0  0  0  0  0  0
   -6.1009   -5.4145   -1.8011 C   0  0  0  0  0  0  0  0  0  0  0  0
   -7.1010   -5.8527   -2.6594 C   0  0  0  0  0  0  0  0  0  0  0  0
   -7.6822   -7.1232   -2.5301 C   0  0  0  0  0  0  0  0  0  0  0  0
   -8.6936   -7.5636   -3.3995 C   0  0  0  0  0  0  0  0  0  0  0  0
   -9.2571   -8.8318   -3.2516 C   0  0  0  0  0  0  0  0  0  0  0  0
   -9.2555  -10.6618   -2.1182 H   0  0  0  0  0  0  0  0  0  0  0  0
   -7.4822   -9.9211   -0.5742 H   0  0  0  0  0  0  0  0  0  0  0  0
   -5.8678   -8.1686    0.1646 H   0  0  0  0  0  0  0  0  0  0  0  0
   -2.8272   -4.8871    1.5591 H   0  0  0  0  0  0  0  0  0  0  0  0
   -1.2125   -3.1346    2.3131 H   0  0  0  0  0  0  0  0  0  0  0  0
   -0.2708   -0.8839    2.0871 H   0  0  0  0  0  0  0  0  0  0  0  0
   -2.8910    1.8626    0.7436 H   0  0  0  0  0  0  0  0  0  0  0  0
   -3.4102    4.2480    0.8954 H   0  0  0  0  0  0  0  0  0  0  0  0
   -3.9272    6.6397    1.0529 H   0  0  0  0  0  0  0  0  0  0  0  0
   -4.4447    9.0318    1.2084 H   0  0  0  0  0  0  0  0  0  0  0  0
   -4.9641   11.4418    1.3644 H   0  0  0  0  0  0  0  0  0  0  0  0
   -4.2352   13.7911    1.2219 H   0  0  0  0  0  0  0  0  0  0  0  0
   -1.8794   14.3355    0.6675 H   0  0  0  0  0  0  0  0  0  0  0  0
   -0.2539   12.5301    0.2559 H   0  0  0  0  0  0  0  0  0  0  0  0
    0.2669   10.1201    0.0997 H   0  0  0  0  0  0  0  0  0  0  0  0
    0.7821    7.7292   -0.0549 H   0  0  0  0  0  0  0  0  0  0  0  0
    1.2988    5.3358   -0.2080 H   0  0  0  0  0  0  0  0  0  0  0  0
    1.8075    2.9460   -0.3695 H   0  0  0  0  0  0  0  0  0  0  0  0
    0.4294   -0.5283   -2.0433 H   0  0  0  0  0  0  0  0  0  0  0  0
    2.1854   -2.1596   -2.5366 H   0  0  0  0  0  0  0  0  0  0  0  0
    4.4134   -3.1531   -2.0223 H   0  0  0  0  0  0  0  0  0  0  0  0
    8.6292   -4.9793   -1.1222 H   0  0  0  0  0  0  0  0  0  0  0  0
   10.8754   -5.9564   -0.6523 H   0  0  0  0  0  0  0  0  0  0  0  0
   12.9260   -6.0082    0.7135 H   0  0  0  0  0  0  0  0  0  0  0  0
   13.1905   -4.4549    2.6290 H   0  0  0  0  0  0  0  0  0  0  0  0
   11.4042   -2.8486    3.1797 H   0  0  0  0  0  0  0  0  0  0  0  0
    9.1564   -1.8839    2.6950 H   0  0  0  0  0  0  0  0  0  0  0  0
    4.9273   -0.0677    1.7997 H   0  0  0  0  0  0  0  0  0  0  0  0
    2.7012    0.9225    1.3117 H   0  0  0  0  0  0  0  0  0  0  0  0
   -2.8267   -0.1398   -1.2932 H   0  0  0  0  0  0  0  0  0  0  0  0
   -4.4089   -1.8972   -2.0417 H   0  0  0  0  0  0  0  0  0  0  0  0
   -7.4307   -5.1793   -3.4477 H   0  0  0  0  0  0  0  0  0  0  0  0
   -9.0504   -6.9196   -4.2006 H   0  0  0  0  0  0  0  0  0  0  0  0
  -10.0393   -9.1613   -3.9310 H   0  0  0  0  0  0  0  0  0  0  0  0
  1  2  4  0
  2  3  4  0
  3  4  4  0
  4  5  4  0
  5  6  4  0
  6  7  4  0
  7  8  4  0
  8  9  4  0
  9 10  4  0
 10 11  4  0
 11 12  4  0
 12 13  1  0
 13 14  4  0
 14 15  4  0
 15 16  4  0
 16 17  4  0
 17 18  4  0
 18 19  4  0
 19 20  4  0
 20 21  4  0
 21 22  4  0
 22 23  4  0
 23 24  4  0
 24 25  4  0
 25 26  4  0
 26 27  4  0
 27 28  4  0
 28 29  4  0
 29 30  4  0
 30 31  4  0
 31 32  4  0
 32 33  4  0
 33 34  4  0
 34 35  1  0
 35 36  4  0
 36 37  4  0
 37 38  4  0
 38 39  4  0
 39 40  4  0
 40 41  4  0
 41 42  4  0
 42 43  4  0
 43 44  4  0
 44 45  4  0
 45 46  4  0
 46 47  4  0
 47 48  4  0
 48 49  4  0
 49 50  4  0
 50 51  4  0
 51 52  4  0
 52 53  4  0
 53 54  4  0
 54 55  4  0
 55 56  4  0
 12 57  4  0
 57 58  4  0
 58 59  4  0
 59 60  4  0
 60 61  4  0
 61 62  4  0
 62 63  4  0
 63 64  4  0
 64 65  4  0
 65 66  4  0
 66  1  4  0
 64  3  4  0
 62  5  4  0
 60  7  4  0
 58  9  4  0
 34 13  4  0
 56 35  4  0
 32 15  4  0
 55 38  4  0
 30 17  4  0
 53 40  4  0
 28 19  4  0
 51 42  4  0
 26 21  4  0
 49 44  4  0
  1 67  1  0
  2 68  1  0
  4 69  1  0
  8 70  1  0
 10 71  1  0
 11 72  1  0
 14 73  1  0
 16 74  1  0
 18 75  1  0
 20 76  1  0
 22 77  1  0
 23 78  1  0
 24 79  1  0
 25 80  1  0
 27 81  1  0
 29 82  1  0
 31 83  1  0
 33 84  1  0
 36 85  1  0
 37 86  1  0
 39 87  1  0
 43 88  1  0
 45 89  1  0
 46 90  1  0
 47 91  1  0
 48 92  1  0
 50 93  1  0
 54 94  1  0
 56 95  1  0
 57 96  1  0
 59 97  1  0
 63 98  1  0
 65 99  1  0
 66100  1  0
M  END
