
     RDKit          3D

100114  0  0  0  0  0  0  0  0999 V2000
    2.7170   -6.9647   -4.5169 C   0  0  0  0  0  0  0  0  0  0  0  0
    3.3553   -5.7656   -4.8197 C   0  0  0  0  0  0  0  0  0  0  0  0
    2.8558   -4.5632   -4.3169 C   0  0  0  0  0  0  0  0  0  0  0  0
    1.7104   -4.5473   -3.5047 C   0  0  0  0  0  0  0  0  0  0  0  0
    1.1904   -3.3513   -2.9874 C   0  0  0  0  0  0  0  0  0  0  0  0
    0.0630   -3.3347   -2.1752 C   0  0  0  0  0  0  0  0  0  0  0  0
   -0.3991   -2.1628   -1.7047 N   0  0  0  0  0  0  0  0  0  0  0  0
   -1.4868   -2.1950   -0.9122 C   0  0  0  0  0  0  0  0  0  0  0  0
   -1.9488   -1.0261   -0.3228 C   0  0  0  0  0  0  0  0  0  0  0  0
   -3.0662   -0.9930    0.5443 C   0  0  0  0  0  0  0  0  0  0  0  0
   -3.7919   -2.1910    0.7120 C   0  0  0  0  0  0  0  0  0  0  0  0
   -3.3078   -3.3749    0.1340 C   0  0  0  0  0  0  0  0  0  0  0  0
   -2.1500   -3.4006   -0.6333 C   0  0  0  0  0  0  0  0  0  0  0  0
   -1.6861   -4.5731   -1.0984 N   0  0  0  0  0  0  0  0  0  0  0  0
   -0.5858   -4.5485   -1.8732 C   0  0  0  0  0  0  0  0  0  0  0  0
   -0.0780   -5.7360   -2.3843 C   0  0  0  0  0  0  0  0  0  0  0  0
    1.0648   -5.7612   -3.1976 C   0  0  0  0  0  0  0  0  0  0  0  0
    1.5780   -6.9637   -3.7105 C   0  0  0  0  0  0  0  0  0  0  0  0
   -4.9650   -2.1974    1.4826 C   0  0  0  0  0  0  0  0  0  0  0  0
   -5.4119   -1.0387    2.1116 C   0  0  0  0  0  0  0  0  0  0  0  0
   -4.6572    0.1266    2.0255 C   0  0  0  0  0  0  0  0  0  0  0  0
   -3.4647    0.1609    1.2805 C   0  0  0  0  0  0  0  0  0  0  0  0
   -2.5857    1.3459    1.4044 C   0  0  0  0  0  0  0  0  0  0  0  0
   -2.6309    2.3516    0.4239 C   0  0  0  0  0  0  0  0  0  0  0  0
   -1.7890    3.4733    0.4866 C   0  0  0  0  0  0  0  0  0  0  0  0
   -1.8286    4.4714   -0.5008 C   0  0  0  0  0  0  0  0  0  0  0  0
   -0.9833    5.5924   -0.4447 C   0  0  0  0  0  0  0  0  0  0  0  0
   -1.0225    6.5913   -1.4322 C   0  0  0  0  0  0  0  0  0  0  0  0
   -0.1758    7.7114   -1.3767 C   0  0  0  0  0  0  0  0  0  0  0  0
   -0.2162    8.7101   -2.3644 C   0  0  0  0  0  0  0  0  0  0  0  0
    0.6304    9.8297   -2.3097 C   0  0  0  0  0  0  0  0  0  0  0  0
    0.5901   10.8281   -3.2971 C   0  0  0  0  0  0  0  0  0  0  0  0
    1.4379   11.9347   -3.2289 C   0  0  0  0  0  0  0  0  0  0  0  0
    2.3363   12.0574   -2.1736 C   0  0  0  0  0  0  0  0  0  0  0  0
    2.3881   11.0737   -1.1848 C   0  0  0  0  0  0  0  0  0  0  0  0
    1.5412    9.9541   -1.2393 C   0  0  0  0  0  0  0  0  0  0  0  0
    1.5805    8.9553   -0.2522 C   0  0  0  0  0  0  0  0  0  0  0  0
    0.7329    7.8355   -0.3079 C   0  0  0  0  0  0  0  0  0  0  0  0
    0.7714    6.8365    0.6796 C   0  0  0  0  0  0  0  0  0  0  0  0
   -0.0759    5.7172    0.6247 C   0  0  0  0  0  0  0  0  0  0  0  0
   -0.0371    4.7197    1.6134 C   0  0  0  0  0  0  0  0  0  0  0  0
   -0.8824    3.5996    1.5581 C   0  0  0  0  0  0  0  0  0  0  0  0
   -0.8418    2.6052    2.5489 C   0  0  0  0  0  0  0  0  0  0  0  0
   -1.6795    1.4785    2.4933 C   0  0  0  0  0  0  0  0  0  0  0  0
   -1.6237    0.4754    3.5843 C   0  0  0  0  0  0  0  0  0  0  0  0
   -2.3753    0.7248    4.7481 C   0  0  0  0  0  0  0  0  0  0  0  0
   -2.4996   -0.2408    5.7419 C   0  0  0  0  0  0  0  0  0  0  0  0
   -1.8948   -1.4832    5.5768 C   0  0  0  0  0  0  0  0  0  0  0  0
   -1.1238   -1.7620    4.4390 C   0  0  0  0  0  0  0  0  0  0  0  0
   -0.5582   -3.0347    4.2559 C   0  0  0  0  0  0  0  0  0  0  0  0
    0.2036   -3.3501    3.1390 C   0  0  0  0  0  0  0  0  0  0  0  0
    0.6803   -4.5997    2.9786 N   0  0  0  0  0  0  0  0  0  0  0  0
    1.4075   -4.8522    1.8738 C   0  0  0  0  0  0  0  0  0  0  0  0
    1.9072   -6.1302    1.6574 C   0  0  0  0  0  0  0  0  0  0  0  0
    2.6717   -6.4433    0.5228 C   0  0  0  0  0  0  0  0  0  0  0  0
    3.1752   -7.7363    0.3052 C   0  0  0  0  0  0  0  0  0  0  0  0
    3.9328   -8.0232   -0.8313 C   0  0  0  0  0  0  0  0  0  0  0  0
    4.1959   -7.0228   -1.7626 C   0  0  0  0  0  0  0  0  0  0  0  0
    3.7021   -5.7336   -1.5591 C   0  0  0  0  0  0  0  0  0  0  0  0
    2.9387   -5.4310   -0.4199 C   0  0  0  0  0  0  0  0  0  0  0  0
    2.4329   -4.1423   -0.1944 C   0  0  0  0  0  0  0  0  0  0  0  0
    1.6766   -3.8413    0.9306 C   0  0  0  0  0  0  0  0  0  0  0  0
    1.2155   -2.5923    1.1048 N   0  0  0  0  0  0  0  0  0  0  0  0
    0.4667   -2.3454    2.1941 C   0  0  0  0  0  0  0  0  0  0  0  0
   -0.0837   -1.0829    2.3755 C   0  0  0  0  0  0  0  0  0  0  0  0
   -0.9350   -0.7663    3.4559 C   0  0  0  0  0  0  0  0  0  0  0  0
    3.1051   -7.9018   -4.9079 H   0  0  0  0  0  0  0  0  0  0  0  0
    4.2428   -5.7646   -5.4473 H   0  0  0  0  0  0  0  0  0  0  0  0
    3.3693   -3.6365   -4.5644 H   0  0  0  0  0  0  0  0  0  0  0  0
    1.6732   -2.4020   -3.2098 H   0  0  0  0  0  0  0  0  0  0  0  0
   -1.3812   -0.1194   -0.5219 H   0  0  0  0  0  0  0  0  0  0  0  0
   -3.8296   -4.3157    0.3000 H   0  0  0  0  0  0  0  0  0  0  0  0
   -0.5928   -6.6616   -2.1360 H   0  0  0  0  0  0  0  0  0  0  0  0
    1.0928   -7.9109   -3.4843 H   0  0  0  0  0  0  0  0  0  0  0  0
   -5.5407   -3.1133    1.6038 H   0  0  0  0  0  0  0  0  0  0  0  0
   -6.3244   -1.0547    2.7026 H   0  0  0  0  0  0  0  0  0  0  0  0
   -4.9770    1.0067    2.5803 H   0  0  0  0  0  0  0  0  0  0  0  0
   -3.3286    2.2471   -0.4060 H   0  0  0  0  0  0  0  0  0  0  0  0
   -2.5280    4.3734   -1.3295 H   0  0  0  0  0  0  0  0  0  0  0  0
   -1.7247    6.4975   -2.2588 H   0  0  0  0  0  0  0  0  0  0  0  0
   -0.9185    8.6153   -3.1907 H   0  0  0  0  0  0  0  0  0  0  0  0
   -0.1052   10.7498   -4.1299 H   0  0  0  0  0  0  0  0  0  0  0  0
    1.3958   12.6995   -4.0000 H   0  0  0  0  0  0  0  0  0  0  0  0
    2.9976   12.9183   -2.1187 H   0  0  0  0  0  0  0  0  0  0  0  0
    3.0973   11.1876   -0.3680 H   0  0  0  0  0  0  0  0  0  0  0  0
    2.2832    9.0517    0.5735 H   0  0  0  0  0  0  0  0  0  0  0  0
    1.4732    6.9330    1.5062 H   0  0  0  0  0  0  0  0  0  0  0  0
    0.6660    4.8160    2.4391 H   0  0  0  0  0  0  0  0  0  0  0  0
   -0.1453    2.7012    3.3808 H   0  0  0  0  0  0  0  0  0  0  0  0
   -2.9010    1.6711    4.8625 H   0  0  0  0  0  0  0  0  0  0  0  0
   -3.0957   -0.0381    6.6276 H   0  0  0  0  0  0  0  0  0  0  0  0
   -2.0353   -2.2411    6.3452 H   0  0  0  0  0  0  0  0  0  0  0  0
   -0.7327   -3.8203    4.9879 H   0  0  0  0  0  0  0  0  0  0  0  0
    1.6904   -6.8974    2.3978 H   0  0  0  0  0  0  0  0  0  0  0  0
    2.9801   -8.5319    1.0215 H   0  0  0  0  0  0  0  0  0  0  0  0
    4.3170   -9.0279   -0.9886 H   0  0  0  0  0  0  0  0  0  0  0  0
    4.7856   -7.2453   -2.6483 H   0  0  0  0  0  0  0  0  0  0  0  0
    3.9173   -4.9642   -2.2979 H   0  0  0  0  0  0  0  0  0  0  0  0
    2.6274   -3.3456   -0.9091 H   0  0  0  0  0  0  0  0  0  0  0  0
    0.1386   -0.3336    1.6183 H   0  0  0  0  0  0  0  0  0  0  0  0
  1  2  4  0
  2  3  4  0
  3  4  4  0
  4  5  4  0
  5  6  4  0
  6  7  4  0
  7  8  4  0
  8  9  4  0
  9 10  4  0
 10 11  4  0
 11 12  4  0
 12 13  4  0
 13 14  4  0
 14 15  4  0
 15 16  4  0
 16 17  4  0
 17 18  4  0
 11 19  4  0
 19 20  4  0
 20 21  4  0
 21 22  4  0
 22 23  1  0
 23 24  4  0
 24 25  4  0
 25 26  4  0
 26 27  4  0
 27 28  4  0
 28 29  4  0
 29 30  4  0
 30 31  4  0
 31 32  4  0
 32 33  4  0
 33 34  4  0
 34 35  4  0
 35 36  4  0
 36 37  4  0
 37 38  4  0
 38 39  4  0
 39 40  4  0
 40 41  4  0
 41 42  4  0
 42 43  4  0
 43 44  4  0
 44 45  1  0
 45 46  4  0
 46 47  4  0
 47 48  4  0
 48 49  4  0
 49 50  4  0
 50 51  4  0
 51 52  4  0
 52 53  4  0
 53 54  4  0
 54 55  4  0
 55 56  4  0
 56 57  4  0
 57 58  4  0
 58 59  4  0
 59 60  4  0
 60 61  4  0
 61 62  4  0
 62 63  4  0
 63 64  4  0
 64 65  4  0
 65 66  4  0
 18  1  4  0
 44 23  4  0
 66 45  4  0
 17  4  4  0
 42 25  4  0
 66 49  4  0
 15  6  4  0
 40 27  4  0
 64 51  4  0
 13  8  4  0
 38 29  4  0
 62 53  4  0
 22 10  4  0
 36 31  4  0
 60 55  4  0
  1 67  1  0
  2 68  1  0
  3 69  1  0
  5 70  1  0
  9 71  1  0
 12 72  1  0
 16 73  1  0
 18 74  1  0
 19 75  1  0
 20 76  1  0
 21 77  1  0
 24 78  1  0
 26 79  1  0
 28 80  1  0
 30 81  1  0
 32 82  1  0
 33 83  1  0
 34 84  1  0
 35 85  1  0
 37 86  1  0
 39 87  1  0
 41 88  1  0
 43 89  1  0
 46 90  1  0
 47 91  1  0
 48 92  1  0
 50 93  1  0
 54 94  1  0
 56 95  1  0
 57 96  1  0
 58 97  1  0
 59 98  1  0
 61 99  1  0
 65100  1  0
M  END
