
     RDKit          3D

100114  0  0  0  0  0  0  0  0999 V2000
   -4.4974   -2.1647   -6.5705 C   0  0  0  0  0  0  0  0  0  0  0  0
   -3.3018   -1.4546   -6.6342 C   0  0  0  0  0  0  0  0  0  0  0  0
   -2.5627   -1.2293   -5.4724 C   0  0  0  0  0  0  0  0  0  0  0  0
   -3.0120   -1.7133   -4.2331 C   0  0  0  0  0  0  0  0  0  0  0  0
   -2.2888   -1.4960   -3.0519 C   0  0  0  0  0  0  0  0  0  0  0  0
   -2.7391   -1.9583   -1.8234 C   0  0  0  0  0  0  0  0  0  0  0  0
   -2.0256   -1.7022   -0.7150 N   0  0  0  0  0  0  0  0  0  0  0  0
   -2.4790   -2.1548    0.4759 C   0  0  0  0  0  0  0  0  0  0  0  0
   -3.6620   -2.9185    0.5138 C   0  0  0  0  0  0  0  0  0  0  0  0
   -4.3861   -3.1750   -0.5905 N   0  0  0  0  0  0  0  0  0  0  0  0
   -3.9364   -2.6890   -1.7593 C   0  0  0  0  0  0  0  0  0  0  0  0
   -4.6587   -2.9124   -2.9246 C   0  0  0  0  0  0  0  0  0  0  0  0
   -4.2209   -2.4323   -4.1681 C   0  0  0  0  0  0  0  0  0  0  0  0
   -4.9554   -2.6507   -5.3448 C   0  0  0  0  0  0  0  0  0  0  0  0
   -4.1093   -3.4348    1.7155 C   0  0  0  0  0  0  0  0  0  0  0  0
   -3.4183   -3.2357    2.9128 C   0  0  0  0  0  0  0  0  0  0  0  0
   -3.9018   -3.8057    4.1033 C   0  0  0  0  0  0  0  0  0  0  0  0
   -3.2314   -3.6263    5.3106 C   0  0  0  0  0  0  0  0  0  0  0  0
   -2.0695   -2.8709    5.3410 C   0  0  0  0  0  0  0  0  0  0  0  0
   -1.5845   -2.2965    4.1633 C   0  0  0  0  0  0  0  0  0  0  0  0
   -2.2413   -2.4582    2.9157 C   0  0  0  0  0  0  0  0  0  0  0  0
   -1.7931   -1.8826    1.6801 C   0  0  0  0  0  0  0  0  0  0  0  0
   -0.6077   -0.9777    1.6516 C   0  0  0  0  0  0  0  0  0  0  0  0
    0.6761   -1.5456    1.7918 C   0  0  0  0  0  0  0  0  0  0  0  0
    1.8382   -0.7590    1.8142 C   0  0  0  0  0  0  0  0  0  0  0  0
    3.1106   -1.3361    1.9606 C   0  0  0  0  0  0  0  0  0  0  0  0
    4.2741   -0.5492    1.9772 C   0  0  0  0  0  0  0  0  0  0  0  0
    5.5476   -1.1253    2.1192 C   0  0  0  0  0  0  0  0  0  0  0  0
    6.7112   -0.3378    2.1299 C   0  0  0  0  0  0  0  0  0  0  0  0
    7.9848   -0.9148    2.2691 C   0  0  0  0  0  0  0  0  0  0  0  0
    9.1486   -0.1283    2.2781 C   0  0  0  0  0  0  0  0  0  0  0  0
   10.4222   -0.7047    2.4162 C   0  0  0  0  0  0  0  0  0  0  0  0
   11.5691    0.0906    2.4232 C   0  0  0  0  0  0  0  0  0  0  0  0
   11.4577    1.4713    2.2924 C   0  0  0  0  0  0  0  0  0  0  0  0
   10.1993    2.0589    2.1541 C   0  0  0  0  0  0  0  0  0  0  0  0
    9.0355    1.2719    2.1451 C   0  0  0  0  0  0  0  0  0  0  0  0
    7.7617    1.8478    2.0061 C   0  0  0  0  0  0  0  0  0  0  0  0
    6.5984    1.0598    1.9969 C   0  0  0  0  0  0  0  0  0  0  0  0
    5.3246    1.6355    1.8569 C   0  0  0  0  0  0  0  0  0  0  0  0
    4.1613    0.8482    1.8454 C   0  0  0  0  0  0  0  0  0  0  0  0
    2.8882    1.4243    1.7020 C   0  0  0  0  0  0  0  0  0  0  0  0
    1.7255    0.6367    1.6852 C   0  0  0  0  0  0  0  0  0  0  0  0
    0.4543    1.2116    1.5287 C   0  0  0  0  0  0  0  0  0  0  0  0
   -0.7198    0.4318    1.4966 C   0  0  0  0  0  0  0  0  0  0  0  0
   -2.0250    1.1124    1.2526 C   0  0  0  0  0  0  0  0  0  0  0  0
   -2.9898    1.2623    2.2963 C   0  0  0  0  0  0  0  0  0  0  0  0
   -2.7432    0.9522    3.6546 C   0  0  0  0  0  0  0  0  0  0  0  0
   -3.7298    1.0774    4.6350 C   0  0  0  0  0  0  0  0  0  0  0  0
   -4.9918    1.5350    4.2877 C   0  0  0  0  0  0  0  0  0  0  0  0
   -5.2574    1.8819    2.9654 C   0  0  0  0  0  0  0  0  0  0  0  0
   -4.2688    1.7619    1.9736 C   0  0  0  0  0  0  0  0  0  0  0  0
   -4.5453    2.1470    0.6594 C   0  0  0  0  0  0  0  0  0  0  0  0
   -3.5895    2.0943   -0.3380 C   0  0  0  0  0  0  0  0  0  0  0  0
   -3.9296    2.5485   -1.5588 N   0  0  0  0  0  0  0  0  0  0  0  0
   -2.9876    2.5299   -2.5156 C   0  0  0  0  0  0  0  0  0  0  0  0
   -3.2878    2.9950   -3.7899 C   0  0  0  0  0  0  0  0  0  0  0  0
   -2.3311    3.0074   -4.8167 C   0  0  0  0  0  0  0  0  0  0  0  0
   -2.6336    3.4805   -6.1043 C   0  0  0  0  0  0  0  0  0  0  0  0
   -1.6639    3.4818   -7.1083 C   0  0  0  0  0  0  0  0  0  0  0  0
   -0.3824    3.0103   -6.8381 C   0  0  0  0  0  0  0  0  0  0  0  0
   -0.0680    2.5381   -5.5634 C   0  0  0  0  0  0  0  0  0  0  0  0
   -1.0334    2.5323   -4.5437 C   0  0  0  0  0  0  0  0  0  0  0  0
   -0.7398    2.0625   -3.2554 C   0  0  0  0  0  0  0  0  0  0  0  0
   -1.6943    2.0524   -2.2470 C   0  0  0  0  0  0  0  0  0  0  0  0
   -1.3670    1.5865   -1.0317 N   0  0  0  0  0  0  0  0  0  0  0  0
   -2.3050    1.5887   -0.0521 C   0  0  0  0  0  0  0  0  0  0  0  0
   -5.0751   -2.3400   -7.4746 H   0  0  0  0  0  0  0  0  0  0  0  0
   -2.9448   -1.0739   -7.5877 H   0  0  0  0  0  0  0  0  0  0  0  0
   -1.6326   -0.6675   -5.5366 H   0  0  0  0  0  0  0  0  0  0  0  0
   -1.3484   -0.9506   -3.0746 H   0  0  0  0  0  0  0  0  0  0  0  0
   -5.5883   -3.4708   -2.8509 H   0  0  0  0  0  0  0  0  0  0  0  0
   -5.8927   -3.2023   -5.3138 H   0  0  0  0  0  0  0  0  0  0  0  0
   -5.0251   -4.0234    1.7055 H   0  0  0  0  0  0  0  0  0  0  0  0
   -4.8136   -4.4002    4.0965 H   0  0  0  0  0  0  0  0  0  0  0  0
   -3.6169   -4.0763    6.2218 H   0  0  0  0  0  0  0  0  0  0  0  0
   -1.5369   -2.7230    6.2769 H   0  0  0  0  0  0  0  0  0  0  0  0
   -0.6731   -1.7064    4.2350 H   0  0  0  0  0  0  0  0  0  0  0  0
    0.7626   -2.6277    1.8838 H   0  0  0  0  0  0  0  0  0  0  0  0
    3.1962   -2.4169    2.0570 H   0  0  0  0  0  0  0  0  0  0  0  0
    5.6350   -2.2058    2.2220 H   0  0  0  0  0  0  0  0  0  0  0  0
    8.0706   -1.9950    2.3709 H   0  0  0  0  0  0  0  0  0  0  0  0
   10.5299   -1.7821    2.5195 H   0  0  0  0  0  0  0  0  0  0  0  0
   12.5481   -0.3691    2.5309 H   0  0  0  0  0  0  0  0  0  0  0  0
   12.3495    2.0925    2.2976 H   0  0  0  0  0  0  0  0  0  0  0  0
   10.1331    3.1398    2.0530 H   0  0  0  0  0  0  0  0  0  0  0  0
    7.6751    2.9279    1.9028 H   0  0  0  0  0  0  0  0  0  0  0  0
    5.2361    2.7155    1.7531 H   0  0  0  0  0  0  0  0  0  0  0  0
    2.7999    2.5042    1.5954 H   0  0  0  0  0  0  0  0  0  0  0  0
    0.3686    2.2901    1.4002 H   0  0  0  0  0  0  0  0  0  0  0  0
   -1.7596    0.6118    3.9698 H   0  0  0  0  0  0  0  0  0  0  0  0
   -3.5064    0.8153    5.6657 H   0  0  0  0  0  0  0  0  0  0  0  0
   -5.7656    1.6326    5.0440 H   0  0  0  0  0  0  0  0  0  0  0  0
   -6.2484    2.2554    2.7137 H   0  0  0  0  0  0  0  0  0  0  0  0
   -5.5291    2.5337    0.3994 H   0  0  0  0  0  0  0  0  0  0  0  0
   -4.2955    3.3579   -3.9780 H   0  0  0  0  0  0  0  0  0  0  0  0
   -3.6300    3.8519   -6.3352 H   0  0  0  0  0  0  0  0  0  0  0  0
   -1.9104    3.8498   -8.1010 H   0  0  0  0  0  0  0  0  0  0  0  0
    0.3738    3.0081   -7.6189 H   0  0  0  0  0  0  0  0  0  0  0  0
    0.9372    2.1694   -5.3693 H   0  0  0  0  0  0  0  0  0  0  0  0
    0.2546    1.6882   -3.0200 H   0  0  0  0  0  0  0  0  0  0  0  0
  1  2  4  0
  2  3  4  0
  3  4  4  0
  4  5  4  0
  5  6  4  0
  6  7  4  0
  7  8  4  0
  8  9  4  0
  9 10  4  0
 10 11  4  0
 11 12  4  0
 12 13  4  0
 13 14  4  0
  9 15  4  0
 15 16  4  0
 16 17  4  0
 17 18  4  0
 18 19  4  0
 19 20  4  0
 20 21  4  0
 21 22  4  0
 22 23  1  0
 23 24  4  0
 24 25  4  0
 25 26  4  0
 26 27  4  0
 27 28  4  0
 28 29  4  0
 29 30  4  0
 30 31  4  0
 31 32  4  0
 32 33  4  0
 33 34  4  0
 34 35  4  0
 35 36  4  0
 36 37  4  0
 37 38  4  0
 38 39  4  0
 39 40  4  0
 40 41  4  0
 41 42  4  0
 42 43  4  0
 43 44  4  0
 44 45  1  0
 45 46  4  0
 46 47  4  0
 47 48  4  0
 48 49  4  0
 49 50  4  0
 50 51  4  0
 51 52  4  0
 52 53  4  0
 53 54  4  0
 54 55  4  0
 55 56  4  0
 56 57  4  0
 57 58  4  0
 58 59  4  0
 59 60  4  0
 60 61  4  0
 61 62  4  0
 62 63  4  0
 63 64  4  0
 64 65  4  0
 65 66  4  0
 14  1  4  0
 21 16  4  0
 44 23  4  0
 66 45  4  0
 13  4  4  0
 42 25  4  0
 51 46  4  0
 66 53  4  0
 11  6  4  0
 40 27  4  0
 64 55  4  0
 22  8  4  0
 38 29  4  0
 62 57  4  0
 36 31  4  0
  1 67  1  0
  2 68  1  0
  3 69  1  0
  5 70  1  0
 12 71  1  0
 14 72  1  0
 15 73  1  0
 17 74  1  0
 18 75  1  0
 19 76  1  0
 20 77  1  0
 24 78  1  0
 26 79  1  0
 28 80  1  0
 30 81  1  0
 32 82  1  0
 33 83  1  0
 34 84  1  0
 35 85  1  0
 37 86  1  0
 39 87  1  0
 41 88  1  0
 43 89  1  0
 47 90  1  0
 48 91  1  0
 49 92  1  0
 50 93  1  0
 52 94  1  0
 56 95  1  0
 58 96  1  0
 59 97  1  0
 60 98  1  0
 61 99  1  0
 63100  1  0
M  END
