
     RDKit          3D

100114  0  0  0  0  0  0  0  0999 V2000
   12.1227   -5.0962   -0.0121 C   0  0  0  0  0  0  0  0  0  0  0  0
   12.3605   -4.1765   -1.0293 C   0  0  0  0  0  0  0  0  0  0  0  0
   11.3736   -3.2541   -1.3799 C   0  0  0  0  0  0  0  0  0  0  0  0
   10.1363   -3.2418   -0.7157 C   0  0  0  0  0  0  0  0  0  0  0  0
    9.1295   -2.3239   -1.0509 C   0  0  0  0  0  0  0  0  0  0  0  0
    7.9052   -2.3094   -0.3957 C   0  0  0  0  0  0  0  0  0  0  0  0
    6.9724   -1.4086   -0.7544 N   0  0  0  0  0  0  0  0  0  0  0  0
    5.8004   -1.4305   -0.0940 C   0  0  0  0  0  0  0  0  0  0  0  0
    4.8079   -0.5182   -0.4301 C   0  0  0  0  0  0  0  0  0  0  0  0
    3.5689   -0.4951    0.2283 C   0  0  0  0  0  0  0  0  0  0  0  0
    2.5697    0.4357   -0.1089 C   0  0  0  0  0  0  0  0  0  0  0  0
    1.3297    0.4579    0.5542 C   0  0  0  0  0  0  0  0  0  0  0  0
    0.3053    1.4611    0.2003 C   0  0  0  0  0  0  0  0  0  0  0  0
    0.6076    2.8242    0.4112 C   0  0  0  0  0  0  0  0  0  0  0  0
   -0.3058    3.8493    0.1163 C   0  0  0  0  0  0  0  0  0  0  0  0
    0.0105    5.2013    0.3329 C   0  0  0  0  0  0  0  0  0  0  0  0
   -0.9043    6.2255    0.0353 C   0  0  0  0  0  0  0  0  0  0  0  0
   -0.5881    7.5778    0.2507 C   0  0  0  0  0  0  0  0  0  0  0  0
   -1.5027    8.6019   -0.0479 C   0  0  0  0  0  0  0  0  0  0  0  0
   -1.1858    9.9540    0.1676 C   0  0  0  0  0  0  0  0  0  0  0  0
   -2.1002   10.9776   -0.1312 C   0  0  0  0  0  0  0  0  0  0  0  0
   -1.7843   12.3295    0.0840 C   0  0  0  0  0  0  0  0  0  0  0  0
   -2.7041   13.3348   -0.2184 C   0  0  0  0  0  0  0  0  0  0  0  0
   -3.9505   13.0019   -0.7393 C   0  0  0  0  0  0  0  0  0  0  0  0
   -4.2791   11.6632   -0.9587 C   0  0  0  0  0  0  0  0  0  0  0  0
   -3.3643   10.6401   -0.6595 C   0  0  0  0  0  0  0  0  0  0  0  0
   -3.6800    9.2883   -0.8745 C   0  0  0  0  0  0  0  0  0  0  0  0
   -2.7646    8.2652   -0.5750 C   0  0  0  0  0  0  0  0  0  0  0  0
   -3.0806    6.9129   -0.7900 C   0  0  0  0  0  0  0  0  0  0  0  0
   -2.1659    5.8887   -0.4911 C   0  0  0  0  0  0  0  0  0  0  0  0
   -2.4812    4.5360   -0.7055 C   0  0  0  0  0  0  0  0  0  0  0  0
   -1.5653    3.5128   -0.4067 C   0  0  0  0  0  0  0  0  0  0  0  0
   -1.8773    2.1599   -0.6181 C   0  0  0  0  0  0  0  0  0  0  0  0
   -0.9653    1.1219   -0.3243 C   0  0  0  0  0  0  0  0  0  0  0  0
   -1.3863   -0.2679   -0.5897 C   0  0  0  0  0  0  0  0  0  0  0  0
   -2.4475   -0.8409    0.1324 C   0  0  0  0  0  0  0  0  0  0  0  0
   -2.8907   -2.1507   -0.1225 C   0  0  0  0  0  0  0  0  0  0  0  0
   -3.9561   -2.7195    0.5921 C   0  0  0  0  0  0  0  0  0  0  0  0
   -4.4058   -4.0085    0.3364 C   0  0  0  0  0  0  0  0  0  0  0  0
   -5.4347   -4.5042    1.0476 N   0  0  0  0  0  0  0  0  0  0  0  0
   -5.8388   -5.7560    0.7662 C   0  0  0  0  0  0  0  0  0  0  0  0
   -6.8970   -6.3081    1.4758 C   0  0  0  0  0  0  0  0  0  0  0  0
   -7.3585   -7.6084    1.2216 C   0  0  0  0  0  0  0  0  0  0  0  0
   -8.4293   -8.1646    1.9402 C   0  0  0  0  0  0  0  0  0  0  0  0
   -8.8712   -9.4604    1.6694 C   0  0  0  0  0  0  0  0  0  0  0  0
   -8.2490  -10.2145    0.6788 C   0  0  0  0  0  0  0  0  0  0  0  0
   -7.1837   -9.6742   -0.0428 C   0  0  0  0  0  0  0  0  0  0  0  0
   -6.7287   -8.3717    0.2190 C   0  0  0  0  0  0  0  0  0  0  0  0
   -5.6598   -7.8080   -0.4937 C   0  0  0  0  0  0  0  0  0  0  0  0
   -5.2083   -6.5201   -0.2372 C   0  0  0  0  0  0  0  0  0  0  0  0
   -4.1791   -6.0243   -0.9481 N   0  0  0  0  0  0  0  0  0  0  0  0
   -3.7738   -4.7720   -0.6663 C   0  0  0  0  0  0  0  0  0  0  0  0
   -2.7144   -4.2158   -1.3734 C   0  0  0  0  0  0  0  0  0  0  0  0
   -2.2575   -2.9122   -1.1211 C   0  0  0  0  0  0  0  0  0  0  0  0
   -1.1920   -2.3482   -1.8394 C   0  0  0  0  0  0  0  0  0  0  0  0
   -0.7661   -1.0418   -1.5788 C   0  0  0  0  0  0  0  0  0  0  0  0
    1.1095   -0.4773    1.5739 C   0  0  0  0  0  0  0  0  0  0  0  0
    2.0916   -1.4112    1.9168 C   0  0  0  0  0  0  0  0  0  0  0  0
    3.3270   -1.4273    1.2535 C   0  0  0  0  0  0  0  0  0  0  0  0
    4.3327   -2.3478    1.5878 C   0  0  0  0  0  0  0  0  0  0  0  0
    5.5593   -2.3625    0.9358 C   0  0  0  0  0  0  0  0  0  0  0  0
    6.4923   -3.2631    1.2950 N   0  0  0  0  0  0  0  0  0  0  0  0
    7.6642   -3.2413    0.6347 C   0  0  0  0  0  0  0  0  0  0  0  0
    8.6565   -4.1527    0.9716 C   0  0  0  0  0  0  0  0  0  0  0  0
    9.8956   -4.1727    0.3139 C   0  0  0  0  0  0  0  0  0  0  0  0
   10.8977   -5.0953    0.6564 C   0  0  0  0  0  0  0  0  0  0  0  0
   12.8905   -5.8153    0.2620 H   0  0  0  0  0  0  0  0  0  0  0  0
   13.3143   -4.1762   -1.5508 H   0  0  0  0  0  0  0  0  0  0  0  0
   11.5779   -2.5429   -2.1776 H   0  0  0  0  0  0  0  0  0  0  0  0
    9.2959   -1.5968   -1.8428 H   0  0  0  0  0  0  0  0  0  0  0  0
    5.0157    0.1925   -1.2272 H   0  0  0  0  0  0  0  0  0  0  0  0
    2.7571    1.1576   -0.9036 H   0  0  0  0  0  0  0  0  0  0  0  0
    1.5796    3.0876    0.8286 H   0  0  0  0  0  0  0  0  0  0  0  0
    0.9865    5.4615    0.7392 H   0  0  0  0  0  0  0  0  0  0  0  0
    0.3874    7.8384    0.6579 H   0  0  0  0  0  0  0  0  0  0  0  0
   -0.2107   10.2148    0.5750 H   0  0  0  0  0  0  0  0  0  0  0  0
   -0.8151   12.6098    0.4904 H   0  0  0  0  0  0  0  0  0  0  0  0
   -2.4461   14.3765   -0.0467 H   0  0  0  0  0  0  0  0  0  0  0  0
   -4.6684   13.7830   -0.9755 H   0  0  0  0  0  0  0  0  0  0  0  0
   -5.2584   11.4233   -1.3667 H   0  0  0  0  0  0  0  0  0  0  0  0
   -4.6553    9.0289   -1.2822 H   0  0  0  0  0  0  0  0  0  0  0  0
   -4.0561    6.6533   -1.1975 H   0  0  0  0  0  0  0  0  0  0  0  0
   -3.4567    4.2748   -1.1123 H   0  0  0  0  0  0  0  0  0  0  0  0
   -2.8523    1.9005   -1.0318 H   0  0  0  0  0  0  0  0  0  0  0  0
   -2.9353   -0.2522    0.9085 H   0  0  0  0  0  0  0  0  0  0  0  0
   -4.4600   -2.1476    1.3687 H   0  0  0  0  0  0  0  0  0  0  0  0
   -7.3692   -5.7018    2.2459 H   0  0  0  0  0  0  0  0  0  0  0  0
   -8.9283   -7.5907    2.7184 H   0  0  0  0  0  0  0  0  0  0  0  0
   -9.7011   -9.8801    2.2324 H   0  0  0  0  0  0  0  0  0  0  0  0
   -8.5922  -11.2240    0.4669 H   0  0  0  0  0  0  0  0  0  0  0  0
   -6.7097  -10.2787   -0.8134 H   0  0  0  0  0  0  0  0  0  0  0  0
   -5.1597   -8.3808   -1.2717 H   0  0  0  0  0  0  0  0  0  0  0  0
   -2.2404   -4.8212   -2.1433 H   0  0  0  0  0  0  0  0  0  0  0  0
   -0.6852   -2.9202   -2.6141 H   0  0  0  0  0  0  0  0  0  0  0  0
    0.0559   -0.6285   -2.1602 H   0  0  0  0  0  0  0  0  0  0  0  0
    0.1655   -0.4834    2.1156 H   0  0  0  0  0  0  0  0  0  0  0  0
    1.8813   -2.1243    2.7115 H   0  0  0  0  0  0  0  0  0  0  0  0
    4.1635   -3.0765    2.3779 H   0  0  0  0  0  0  0  0  0  0  0  0
    8.4503   -4.8629    1.7694 H   0  0  0  0  0  0  0  0  0  0  0  0
   10.7305   -5.8220    1.4488 H   0  0  0  0  0  0  0  0  0  0  0  0
  1  2  4  0
  2  3  4  0
  3  4  4  0
  4  5  4  0
  5  6  4  0
  6  7  4  0
  7  8  4  0
  8  9  4  0
  9 10  4  0
 10 11  4  0
 11 12  4  0
 12 13  1  0
 13 14  4  0
 14 15  4  0
 15 16  4  0
 16 17  4  0
 17 18  4  0
 18 19  4  0
 19 20  4  0
 20 21  4  0
 21 22  4  0
 22 23  4  0
 23 24  4  0
 24 25  4  0
 25 26  4  0
 26 27  4  0
 27 28  4  0
 28 29  4  0
 29 30  4  0
 30 31  4  0
 31 32  4  0
 32 33  4  0
 33 34  4  0
 34 35  1  0
 35 36  4  0
 36 37  4  0
 37 38  4  0
 38 39  4  0
 39 40  4  0
 40 41  4  0
 41 42  4  0
 42 43  4  0
 43 44  4  0
 44 45  4  0
 45 46  4  0
 46 47  4  0
 47 48  4  0
 48 49  4  0
 49 50  4  0
 50 51  4  0
 51 52  4  0
 52 53  4  0
 53 54  4  0
 54 55  4  0
 55 56  4  0
 12 57  4  0
 57 58  4  0
 58 59  4  0
 59 60  4  0
 60 61  4  0
 61 62  4  0
 62 63  4  0
 63 64  4  0
 64 65  4  0
 65 66  4  0
 66  1  4  0
 65  4  4  0
 63  6  4  0
 61  8  4  0
 59 10  4  0
 34 13  4  0
 56 35  4  0
 32 15  4  0
 54 37  4  0
 30 17  4  0
 52 39  4  0
 28 19  4  0
 50 41  4  0
 26 21  4  0
 48 43  4  0
  1 67  1  0
  2 68  1  0
  3 69  1  0
  5 70  1  0
  9 71  1  0
 11 72  1  0
 14 73  1  0
 16 74  1  0
 18 75  1  0
 20 76  1  0
 22 77  1  0
 23 78  1  0
 24 79  1  0
 25 80  1  0
 27 81  1  0
 29 82  1  0
 31 83  1  0
 33 84  1  0
 36 85  1  0
 38 86  1  0
 42 87  1  0
 44 88  1  0
 45 89  1  0
 46 90  1  0
 47 91  1  0
 49 92  1  0
 53 93  1  0
 55 94  1  0
 56 95  1  0
 57 96  1  0
 58 97  1  0
 60 98  1  0
 64 99  1  0
 66100  1  0
M  END
