
     RDKit          3D

100114  0  0  0  0  0  0  0  0999 V2000
    1.2572    3.9839    5.7255 C   0  0  0  0  0  0  0  0  0  0  0  0
    1.8702    2.8195    5.2904 C   0  0  0  0  0  0  0  0  0  0  0  0
    1.4749    2.2357    4.0841 C   0  0  0  0  0  0  0  0  0  0  0  0
    0.4553    2.7936    3.2683 C   0  0  0  0  0  0  0  0  0  0  0  0
   -0.1530    3.9767    3.7377 C   0  0  0  0  0  0  0  0  0  0  0  0
    0.2504    4.5577    4.9536 C   0  0  0  0  0  0  0  0  0  0  0  0
   -1.1695    4.5710    2.9874 C   0  0  0  0  0  0  0  0  0  0  0  0
   -1.5904    4.0537    1.7770 C   0  0  0  0  0  0  0  0  0  0  0  0
   -2.5724    4.7039    1.1273 N   0  0  0  0  0  0  0  0  0  0  0  0
   -2.9753    4.2061   -0.0533 C   0  0  0  0  0  0  0  0  0  0  0  0
   -4.0058    4.8269   -0.7480 C   0  0  0  0  0  0  0  0  0  0  0  0
   -4.4612    4.3411   -1.9831 C   0  0  0  0  0  0  0  0  0  0  0  0
   -5.5121    4.9607   -2.6791 C   0  0  0  0  0  0  0  0  0  0  0  0
   -5.9482    4.4568   -3.9054 C   0  0  0  0  0  0  0  0  0  0  0  0
   -5.3389    3.3302   -4.4505 C   0  0  0  0  0  0  0  0  0  0  0  0
   -4.2923    2.7062   -3.7706 C   0  0  0  0  0  0  0  0  0  0  0  0
   -3.8449    3.2017   -2.5353 C   0  0  0  0  0  0  0  0  0  0  0  0
   -2.7988    2.5889   -1.8309 C   0  0  0  0  0  0  0  0  0  0  0  0
   -2.3693    3.0629   -0.5990 C   0  0  0  0  0  0  0  0  0  0  0  0
   -1.3859    2.4226    0.0558 N   0  0  0  0  0  0  0  0  0  0  0  0
   -0.9902    2.8860    1.2638 C   0  0  0  0  0  0  0  0  0  0  0  0
    0.0073    2.2322    2.0226 C   0  0  0  0  0  0  0  0  0  0  0  0
    0.5899    0.9503    1.5228 C   0  0  0  0  0  0  0  0  0  0  0  0
    1.9223    0.9597    1.0549 C   0  0  0  0  0  0  0  0  0  0  0  0
    2.5765   -0.2110    0.6405 C   0  0  0  0  0  0  0  0  0  0  0  0
    3.9113   -0.1899    0.2020 C   0  0  0  0  0  0  0  0  0  0  0  0
    4.5687   -1.3643   -0.2017 C   0  0  0  0  0  0  0  0  0  0  0  0
    5.9057   -1.3460   -0.6339 C   0  0  0  0  0  0  0  0  0  0  0  0
    6.5642   -2.5213   -1.0345 C   0  0  0  0  0  0  0  0  0  0  0  0
    7.9027   -2.5034   -1.4633 C   0  0  0  0  0  0  0  0  0  0  0  0
    8.5596   -3.6788   -1.8637 C   0  0  0  0  0  0  0  0  0  0  0  0
    9.8971   -3.6612   -2.2924 C   0  0  0  0  0  0  0  0  0  0  0  0
   10.5361   -4.8376   -2.6873 C   0  0  0  0  0  0  0  0  0  0  0  0
    9.8467   -6.0457   -2.6586 C   0  0  0  0  0  0  0  0  0  0  0  0
    8.5172   -6.0794   -2.2350 C   0  0  0  0  0  0  0  0  0  0  0  0
    7.8602   -4.9039   -1.8346 C   0  0  0  0  0  0  0  0  0  0  0  0
    6.5227   -4.9207   -1.4056 C   0  0  0  0  0  0  0  0  0  0  0  0
    5.8664   -3.7446   -1.0050 C   0  0  0  0  0  0  0  0  0  0  0  0
    4.5290   -3.7622   -0.5748 C   0  0  0  0  0  0  0  0  0  0  0  0
    3.8722   -2.5874   -0.1711 C   0  0  0  0  0  0  0  0  0  0  0  0
    2.5360   -2.6059    0.2633 C   0  0  0  0  0  0  0  0  0  0  0  0
    1.8816   -1.4322    0.6727 C   0  0  0  0  0  0  0  0  0  0  0  0
    0.5461   -1.4502    1.1059 C   0  0  0  0  0  0  0  0  0  0  0  0
   -0.1232   -0.2806    1.5239 C   0  0  0  0  0  0  0  0  0  0  0  0
   -1.5627   -0.3796    1.9051 C   0  0  0  0  0  0  0  0  0  0  0  0
   -2.5188   -0.5902    0.8799 C   0  0  0  0  0  0  0  0  0  0  0  0
   -2.1533   -0.8708   -0.3964 N   0  0  0  0  0  0  0  0  0  0  0  0
   -3.1065   -1.0375   -1.3262 C   0  0  0  0  0  0  0  0  0  0  0  0
   -2.7422   -1.3175   -2.6371 C   0  0  0  0  0  0  0  0  0  0  0  0
   -3.6987   -1.4740   -3.6504 C   0  0  0  0  0  0  0  0  0  0  0  0
   -3.3313   -1.7531   -4.9771 C   0  0  0  0  0  0  0  0  0  0  0  0
   -4.3025   -1.8940   -5.9691 C   0  0  0  0  0  0  0  0  0  0  0  0
   -5.6499   -1.7576   -5.6477 C   0  0  0  0  0  0  0  0  0  0  0  0
   -6.0286   -1.4831   -4.3329 C   0  0  0  0  0  0  0  0  0  0  0  0
   -5.0626   -1.3416   -3.3240 C   0  0  0  0  0  0  0  0  0  0  0  0
   -5.4206   -1.0704   -1.9946 C   0  0  0  0  0  0  0  0  0  0  0  0
   -4.4665   -0.9218   -0.9962 C   0  0  0  0  0  0  0  0  0  0  0  0
   -4.8519   -0.6718    0.2658 N   0  0  0  0  0  0  0  0  0  0  0  0
   -3.8903   -0.5160    1.1952 C   0  0  0  0  0  0  0  0  0  0  0  0
   -4.2844   -0.2841    2.5002 C   0  0  0  0  0  0  0  0  0  0  0  0
   -3.3636   -0.1614    3.5437 C   0  0  0  0  0  0  0  0  0  0  0  0
   -3.8135    0.0261    4.8622 C   0  0  0  0  0  0  0  0  0  0  0  0
   -2.9129    0.1221    5.9201 C   0  0  0  0  0  0  0  0  0  0  0  0
   -1.5526    0.0174    5.6723 C   0  0  0  0  0  0  0  0  0  0  0  0
   -1.0978   -0.1670    4.3649 C   0  0  0  0  0  0  0  0  0  0  0  0
   -1.9833   -0.2334    3.2632 C   0  0  0  0  0  0  0  0  0  0  0  0
    1.5589    4.4458    6.6620 H   0  0  0  0  0  0  0  0  0  0  0  0
    2.6553    2.3585    5.8841 H   0  0  0  0  0  0  0  0  0  0  0  0
    1.9793    1.3178    3.7884 H   0  0  0  0  0  0  0  0  0  0  0  0
   -0.2225    5.4710    5.3105 H   0  0  0  0  0  0  0  0  0  0  0  0
   -1.6551    5.4764    3.3473 H   0  0  0  0  0  0  0  0  0  0  0  0
   -4.4638    5.7084   -0.3050 H   0  0  0  0  0  0  0  0  0  0  0  0
   -6.0009    5.8414   -2.2679 H   0  0  0  0  0  0  0  0  0  0  0  0
   -6.7637    4.9441   -4.4335 H   0  0  0  0  0  0  0  0  0  0  0  0
   -5.6768    2.9354   -5.4051 H   0  0  0  0  0  0  0  0  0  0  0  0
   -3.8285    1.8262   -4.2114 H   0  0  0  0  0  0  0  0  0  0  0  0
   -2.3024    1.7127   -2.2411 H   0  0  0  0  0  0  0  0  0  0  0  0
    2.4608    1.9068    1.0287 H   0  0  0  0  0  0  0  0  0  0  0  0
    4.4482    0.7569    0.1767 H   0  0  0  0  0  0  0  0  0  0  0  0
    6.4437   -0.3999   -0.6579 H   0  0  0  0  0  0  0  0  0  0  0  0
    8.4433   -1.5588   -1.4863 H   0  0  0  0  0  0  0  0  0  0  0  0
   10.4527   -2.7266   -2.3218 H   0  0  0  0  0  0  0  0  0  0  0  0
   11.5715   -4.8090   -3.0167 H   0  0  0  0  0  0  0  0  0  0  0  0
   10.3423   -6.9630   -2.9655 H   0  0  0  0  0  0  0  0  0  0  0  0
    7.9954   -7.0337   -2.2196 H   0  0  0  0  0  0  0  0  0  0  0  0
    5.9840   -5.8664   -1.3831 H   0  0  0  0  0  0  0  0  0  0  0  0
    3.9881   -4.7067   -0.5525 H   0  0  0  0  0  0  0  0  0  0  0  0
    1.9945   -3.5500    0.2846 H   0  0  0  0  0  0  0  0  0  0  0  0
   -0.0027   -2.3915    1.1000 H   0  0  0  0  0  0  0  0  0  0  0  0
   -1.6817   -1.4020   -2.8650 H   0  0  0  0  0  0  0  0  0  0  0  0
   -2.2829   -1.8651   -5.2475 H   0  0  0  0  0  0  0  0  0  0  0  0
   -4.0062   -2.1092   -6.9927 H   0  0  0  0  0  0  0  0  0  0  0  0
   -6.4073   -1.8653   -6.4200 H   0  0  0  0  0  0  0  0  0  0  0  0
   -7.0859   -1.3782   -4.0989 H   0  0  0  0  0  0  0  0  0  0  0  0
   -6.4683   -0.9648   -1.7214 H   0  0  0  0  0  0  0  0  0  0  0  0
   -5.3519   -0.2269    2.7057 H   0  0  0  0  0  0  0  0  0  0  0  0
   -4.8784    0.0950    5.0767 H   0  0  0  0  0  0  0  0  0  0  0  0
   -3.2748    0.2682    6.9342 H   0  0  0  0  0  0  0  0  0  0  0  0
   -0.8400    0.0791    6.4904 H   0  0  0  0  0  0  0  0  0  0  0  0
   -0.0260   -0.2685    4.2126 H   0  0  0  0  0  0  0  0  0  0  0  0
  1  2  4  0
  2  3  4  0
  3  4  4  0
  4  5  4  0
  5  6  4  0
  5  7  4  0
  7  8  4  0
  8  9  4  0
  9 10  4  0
 10 11  4  0
 11 12  4  0
 12 13  4  0
 13 14  4  0
 14 15  4  0
 15 16  4  0
 16 17  4  0
 17 18  4  0
 18 19  4  0
 19 20  4  0
 20 21  4  0
 21 22  4  0
 22 23  1  0
 23 24  4  0
 24 25  4  0
 25 26  4  0
 26 27  4  0
 27 28  4  0
 28 29  4  0
 29 30  4  0
 30 31  4  0
 31 32  4  0
 32 33  4  0
 33 34  4  0
 34 35  4  0
 35 36  4  0
 36 37  4  0
 37 38  4  0
 38 39  4  0
 39 40  4  0
 40 41  4  0
 41 42  4  0
 42 43  4  0
 43 44  4  0
 44 45  1  0
 45 46  4  0
 46 47  4  0
 47 48  4  0
 48 49  4  0
 49 50  4  0
 50 51  4  0
 51 52  4  0
 52 53  4  0
 53 54  4  0
 54 55  4  0
 55 56  4  0
 56 57  4  0
 57 58  4  0
 58 59  4  0
 59 60  4  0
 60 61  4  0
 61 62  4  0
 62 63  4  0
 63 64  4  0
 64 65  4  0
 65 66  4  0
  6  1  4  0
 21  8  4  0
 44 23  4  0
 66 45  4  0
 22  4  4  0
 42 25  4  0
 59 46  4  0
 66 61  4  0
 19 10  4  0
 40 27  4  0
 57 48  4  0
 17 12  4  0
 38 29  4  0
 55 50  4  0
 36 31  4  0
  1 67  1  0
  2 68  1  0
  3 69  1  0
  6 70  1  0
  7 71  1  0
 11 72  1  0
 13 73  1  0
 14 74  1  0
 15 75  1  0
 16 76  1  0
 18 77  1  0
 24 78  1  0
 26 79  1  0
 28 80  1  0
 30 81  1  0
 32 82  1  0
 33 83  1  0
 34 84  1  0
 35 85  1  0
 37 86  1  0
 39 87  1  0
 41 88  1  0
 43 89  1  0
 49 90  1  0
 51 91  1  0
 52 92  1  0
 53 93  1  0
 54 94  1  0
 56 95  1  0
 60 96  1  0
 62 97  1  0
 63 98  1  0
 64 99  1  0
 65100  1  0
M  END
