
     RDKit          3D

102114  0  0  0  0  0  0  0  0999 V2000
   -6.4024   -4.6448    3.8063 C   0  0  0  0  0  0  0  0  0  0  0  0
   -6.3927   -5.1172    2.4739 C   0  0  0  0  0  0  0  0  0  0  0  0
   -5.5753   -4.3226    1.6733 C   0  0  0  0  0  0  0  0  0  0  0  0
   -5.3350   -4.4478    0.3239 C   0  0  0  0  0  0  0  0  0  0  0  0
   -5.7192   -5.3688   -0.7384 C   0  0  0  0  0  0  0  0  0  0  0  0
   -6.0094   -4.8879   -2.0238 C   0  0  0  0  0  0  0  0  0  0  0  0
   -6.3826   -5.7625   -3.0475 C   0  0  0  0  0  0  0  0  0  0  0  0
   -6.4643   -7.1307   -2.7995 C   0  0  0  0  0  0  0  0  0  0  0  0
   -6.1689   -7.6248   -1.5308 C   0  0  0  0  0  0  0  0  0  0  0  0
   -5.7968   -6.7488   -0.5069 C   0  0  0  0  0  0  0  0  0  0  0  0
   -4.5109   -3.4184   -0.0699 O   0  0  0  0  0  0  0  0  0  0  0  0
   -4.1980   -2.6528    1.0308 C   0  0  0  0  0  0  0  0  0  0  0  0
   -3.2929   -1.5417    0.7662 C   0  0  0  0  0  0  0  0  0  0  0  0
   -3.4018   -0.8078   -0.4218 C   0  0  0  0  0  0  0  0  0  0  0  0
   -2.5311    0.2533   -0.6910 C   0  0  0  0  0  0  0  0  0  0  0  0
   -1.5212    0.6061    0.2171 C   0  0  0  0  0  0  0  0  0  0  0  0
   -0.6083    1.7270   -0.0770 C   0  0  0  0  0  0  0  0  0  0  0  0
   -1.1535    3.0280   -0.1422 C   0  0  0  0  0  0  0  0  0  0  0  0
   -0.3657    4.1576   -0.4145 C   0  0  0  0  0  0  0  0  0  0  0  0
   -0.9226    5.4464   -0.4770 C   0  0  0  0  0  0  0  0  0  0  0  0
   -0.1316    6.5743   -0.7536 C   0  0  0  0  0  0  0  0  0  0  0  0
   -0.6872    7.8636   -0.8179 C   0  0  0  0  0  0  0  0  0  0  0  0
    0.1043    8.9909   -1.0963 C   0  0  0  0  0  0  0  0  0  0  0  0
   -0.4517   10.2801   -1.1611 C   0  0  0  0  0  0  0  0  0  0  0  0
    0.3400   11.4066   -1.4399 C   0  0  0  0  0  0  0  0  0  0  0  0
   -0.2152   12.6955   -1.5048 C   0  0  0  0  0  0  0  0  0  0  0  0
    0.5850   13.8047   -1.7831 C   0  0  0  0  0  0  0  0  0  0  0  0
    1.9494   13.6398   -2.0000 C   0  0  0  0  0  0  0  0  0  0  0  0
    2.5158   12.3656   -1.9389 C   0  0  0  0  0  0  0  0  0  0  0  0
    1.7237   11.2395   -1.6598 C   0  0  0  0  0  0  0  0  0  0  0  0
    2.2784    9.9506   -1.5948 C   0  0  0  0  0  0  0  0  0  0  0  0
    1.4856    8.8245   -1.3156 C   0  0  0  0  0  0  0  0  0  0  0  0
    2.0410    7.5354   -1.2506 C   0  0  0  0  0  0  0  0  0  0  0  0
    1.2494    6.4084   -0.9723 C   0  0  0  0  0  0  0  0  0  0  0  0
    1.8048    5.1193   -0.9075 C   0  0  0  0  0  0  0  0  0  0  0  0
    1.0123    3.9924   -0.6303 C   0  0  0  0  0  0  0  0  0  0  0  0
    1.5640    2.7025   -0.5648 C   0  0  0  0  0  0  0  0  0  0  0  0
    0.7812    1.5595   -0.2903 C   0  0  0  0  0  0  0  0  0  0  0  0
    1.4572    0.2464   -0.2530 C   0  0  0  0  0  0  0  0  0  0  0  0
    1.1315   -0.7726   -1.1598 C   0  0  0  0  0  0  0  0  0  0  0  0
    1.7966   -2.0056   -1.1319 C   0  0  0  0  0  0  0  0  0  0  0  0
    2.8174   -2.2492   -0.2061 C   0  0  0  0  0  0  0  0  0  0  0  0
    3.5330   -3.5199   -0.1805 C   0  0  0  0  0  0  0  0  0  0  0  0
    3.9767   -4.4396   -1.1042 C   0  0  0  0  0  0  0  0  0  0  0  0
    3.8763   -4.3785   -2.4926 C   0  0  0  0  0  0  0  0  0  0  0  0
    4.4443   -5.5278   -3.0890 C   0  0  0  0  0  0  0  0  0  0  0  0
    5.0438   -6.6083   -2.3536 C   0  0  0  0  0  0  0  0  0  0  0  0
    5.1481   -6.6488   -0.9443 C   0  0  0  0  0  0  0  0  0  0  0  0
    4.5934   -5.5051   -0.3740 C   0  0  0  0  0  0  0  0  0  0  0  0
    4.5199   -5.1762    0.9603 C   0  0  0  0  0  0  0  0  0  0  0  0
    4.9591   -5.7597    2.2216 C   0  0  0  0  0  0  0  0  0  0  0  0
    6.1991   -6.4036    2.3299 C   0  0  0  0  0  0  0  0  0  0  0  0
    6.6111   -6.9598    3.5445 C   0  0  0  0  0  0  0  0  0  0  0  0
    5.7890   -6.8747    4.6661 C   0  0  0  0  0  0  0  0  0  0  0  0
    4.5577   -6.2297    4.5765 C   0  0  0  0  0  0  0  0  0  0  0  0
    4.1473   -5.6737    3.3623 C   0  0  0  0  0  0  0  0  0  0  0  0
    3.8713   -3.9683    1.0765 O   0  0  0  0  0  0  0  0  0  0  0  0
    3.1375   -1.2385    0.7093 C   0  0  0  0  0  0  0  0  0  0  0  0
    2.4692   -0.0091    0.6853 C   0  0  0  0  0  0  0  0  0  0  0  0
   -1.4153   -0.1299    1.4057 C   0  0  0  0  0  0  0  0  0  0  0  0
   -2.2875   -1.1920    1.6750 C   0  0  0  0  0  0  0  0  0  0  0  0
   -4.8486   -3.1758    2.1253 C   0  0  0  0  0  0  0  0  0  0  0  0
   -4.8547   -2.6905    3.4312 C   0  0  0  0  0  0  0  0  0  0  0  0
   -5.6721   -3.4924    4.2610 C   0  0  0  0  0  0  0  0  0  0  0  0
   -7.0097   -5.1808    4.5372 H   0  0  0  0  0  0  0  0  0  0  0  0
   -6.9676   -5.9715    2.1470 H   0  0  0  0  0  0  0  0  0  0  0  0
   -5.9505   -3.8217   -2.2330 H   0  0  0  0  0  0  0  0  0  0  0  0
   -6.6077   -5.3739   -4.0372 H   0  0  0  0  0  0  0  0  0  0  0  0
   -6.7518   -7.8120   -3.5961 H   0  0  0  0  0  0  0  0  0  0  0  0
   -6.2208   -8.6932   -1.3381 H   0  0  0  0  0  0  0  0  0  0  0  0
   -5.5486   -7.1603    0.4683 H   0  0  0  0  0  0  0  0  0  0  0  0
   -4.1694   -1.0597   -1.1508 H   0  0  0  0  0  0  0  0  0  0  0  0
   -2.6388    0.7979   -1.6269 H   0  0  0  0  0  0  0  0  0  0  0  0
   -2.2215    3.1565    0.0333 H   0  0  0  0  0  0  0  0  0  0  0  0
   -1.9907    5.5738   -0.3084 H   0  0  0  0  0  0  0  0  0  0  0  0
   -1.7549    7.9923   -0.6487 H   0  0  0  0  0  0  0  0  0  0  0  0
   -1.5192   10.4102   -0.9921 H   0  0  0  0  0  0  0  0  0  0  0  0
   -1.2796   12.8448   -1.3383 H   0  0  0  0  0  0  0  0  0  0  0  0
    0.1419   14.7960   -1.8303 H   0  0  0  0  0  0  0  0  0  0  0  0
    2.5745   14.5021   -2.2170 H   0  0  0  0  0  0  0  0  0  0  0  0
    3.5843   12.2576   -2.1115 H   0  0  0  0  0  0  0  0  0  0  0  0
    3.3457    9.8220   -1.7651 H   0  0  0  0  0  0  0  0  0  0  0  0
    3.1087    7.4071   -1.4203 H   0  0  0  0  0  0  0  0  0  0  0  0
    2.8727    4.9908   -1.0762 H   0  0  0  0  0  0  0  0  0  0  0  0
    2.6318    2.5747   -0.7430 H   0  0  0  0  0  0  0  0  0  0  0  0
    0.3476   -0.6170   -1.8983 H   0  0  0  0  0  0  0  0  0  0  0  0
    1.4901   -2.7762   -1.8347 H   0  0  0  0  0  0  0  0  0  0  0  0
    3.4395   -3.5737   -3.0657 H   0  0  0  0  0  0  0  0  0  0  0  0
    4.4274   -5.6034   -4.1772 H   0  0  0  0  0  0  0  0  0  0  0  0
    5.4435   -7.4487   -2.9229 H   0  0  0  0  0  0  0  0  0  0  0  0
    5.5957   -7.4741   -0.4097 H   0  0  0  0  0  0  0  0  0  0  0  0
    6.8681   -6.4615    1.4750 H   0  0  0  0  0  0  0  0  0  0  0  0
    7.5771   -7.4531    3.6151 H   0  0  0  0  0  0  0  0  0  0  0  0
    6.1101   -7.3054    5.6110 H   0  0  0  0  0  0  0  0  0  0  0  0
    3.9152   -6.1560    5.4499 H   0  0  0  0  0  0  0  0  0  0  0  0
    3.1826   -5.1725    3.3083 H   0  0  0  0  0  0  0  0  0  0  0  0
    3.9198   -1.3993    1.4489 H   0  0  0  0  0  0  0  0  0  0  0  0
    2.7461    0.7517    1.4124 H   0  0  0  0  0  0  0  0  0  0  0  0
   -0.6397    0.1120    2.1297 H   0  0  0  0  0  0  0  0  0  0  0  0
   -2.1521   -1.7567    2.5941 H   0  0  0  0  0  0  0  0  0  0  0  0
   -4.3327   -1.8145    3.7879 H   0  0  0  0  0  0  0  0  0  0  0  0
   -5.7649   -3.2162    5.3124 H   0  0  0  0  0  0  0  0  0  0  0  0
  1  2  4  0
  2  3  4  0
  3  4  4  0
  4  5  1  0
  5  6  4  0
  6  7  4  0
  7  8  4  0
  8  9  4  0
  9 10  4  0
  4 11  4  0
 11 12  4  0
 12 13  1  0
 13 14  4  0
 14 15  4  0
 15 16  4  0
 16 17  1  0
 17 18  4  0
 18 19  4  0
 19 20  4  0
 20 21  4  0
 21 22  4  0
 22 23  4  0
 23 24  4  0
 24 25  4  0
 25 26  4  0
 26 27  4  0
 27 28  4  0
 28 29  4  0
 29 30  4  0
 30 31  4  0
 31 32  4  0
 32 33  4  0
 33 34  4  0
 34 35  4  0
 35 36  4  0
 36 37  4  0
 37 38  4  0
 38 39  1  0
 39 40  4  0
 40 41  4  0
 41 42  4  0
 42 43  1  0
 43 44  4  0
 44 45  4  0
 45 46  4  0
 46 47  4  0
 47 48  4  0
 48 49  4  0
 49 50  4  0
 50 51  1  0
 51 52  4  0
 52 53  4  0
 53 54  4  0
 54 55  4  0
 55 56  4  0
 50 57  4  0
 42 58  4  0
 58 59  4  0
 16 60  4  0
 60 61  4  0
 12 62  4  0
 62 63  4  0
 63 64  4  0
 64  1  4  0
 62  3  4  0
 10  5  4  0
 61 13  4  0
 38 17  4  0
 59 39  4  0
 36 19  4  0
 57 43  4  0
 34 21  4  0
 49 44  4  0
 56 51  4  0
 32 23  4  0
 30 25  4  0
  1 65  1  0
  2 66  1  0
  6 67  1  0
  7 68  1  0
  8 69  1  0
  9 70  1  0
 10 71  1  0
 14 72  1  0
 15 73  1  0
 18 74  1  0
 20 75  1  0
 22 76  1  0
 24 77  1  0
 26 78  1  0
 27 79  1  0
 28 80  1  0
 29 81  1  0
 31 82  1  0
 33 83  1  0
 35 84  1  0
 37 85  1  0
 40 86  1  0
 41 87  1  0
 45 88  1  0
 46 89  1  0
 47 90  1  0
 48 91  1  0
 52 92  1  0
 53 93  1  0
 54 94  1  0
 55 95  1  0
 56 96  1  0
 58 97  1  0
 59 98  1  0
 60 99  1  0
 61100  1  0
 63101  1  0
 64102  1  0
M  END
