
     RDKit          3D

102114  0  0  0  0  0  0  0  0999 V2000
   -0.7021   -6.0275    1.0446 C   0  0  0  0  0  0  0  0  0  0  0  0
   -2.1122   -6.1387    1.0566 C   0  0  0  0  0  0  0  0  0  0  0  0
   -2.6979   -5.0853    0.3575 C   0  0  0  0  0  0  0  0  0  0  0  0
   -4.0361   -4.8645    0.1199 C   0  0  0  0  0  0  0  0  0  0  0  0
   -5.2944   -5.5050    0.4836 C   0  0  0  0  0  0  0  0  0  0  0  0
   -5.4851   -6.0571    1.7578 C   0  0  0  0  0  0  0  0  0  0  0  0
   -6.6924   -6.6762    2.0953 C   0  0  0  0  0  0  0  0  0  0  0  0
   -7.7253   -6.7464    1.1632 C   0  0  0  0  0  0  0  0  0  0  0  0
   -7.5551   -6.1932   -0.1039 C   0  0  0  0  0  0  0  0  0  0  0  0
   -6.3482   -5.5740   -0.4397 C   0  0  0  0  0  0  0  0  0  0  0  0
   -4.1611   -3.7376   -0.6632 O   0  0  0  0  0  0  0  0  0  0  0  0
   -2.9069   -3.2223   -0.8985 C   0  0  0  0  0  0  0  0  0  0  0  0
   -2.8777   -2.0000   -1.6892 C   0  0  0  0  0  0  0  0  0  0  0  0
   -3.6900   -1.8734   -2.8231 C   0  0  0  0  0  0  0  0  0  0  0  0
   -3.6591   -0.7114   -3.5929 C   0  0  0  0  0  0  0  0  0  0  0  0
   -2.8191    0.3411   -3.2297 C   0  0  0  0  0  0  0  0  0  0  0  0
   -2.0002    0.2519   -2.0918 C   0  0  0  0  0  0  0  0  0  0  0  0
   -1.1386    1.3860   -1.7012 C   0  0  0  0  0  0  0  0  0  0  0  0
   -1.7630    2.5994   -1.3367 C   0  0  0  0  0  0  0  0  0  0  0  0
   -1.0311    3.7329   -0.9478 C   0  0  0  0  0  0  0  0  0  0  0  0
   -1.6670    4.9329   -0.5857 C   0  0  0  0  0  0  0  0  0  0  0  0
   -0.9300    6.0653   -0.1993 C   0  0  0  0  0  0  0  0  0  0  0  0
   -1.5642    7.2656    0.1632 C   0  0  0  0  0  0  0  0  0  0  0  0
   -0.8267    8.3979    0.5487 C   0  0  0  0  0  0  0  0  0  0  0  0
   -1.4618    9.5981    0.9107 C   0  0  0  0  0  0  0  0  0  0  0  0
   -0.7245   10.7300    1.2960 C   0  0  0  0  0  0  0  0  0  0  0  0
   -1.3592   11.9298    1.6578 C   0  0  0  0  0  0  0  0  0  0  0  0
   -0.6128   13.0460    2.0384 C   0  0  0  0  0  0  0  0  0  0  0  0
    0.7766   12.9773    2.0622 C   0  0  0  0  0  0  0  0  0  0  0  0
    1.4218   11.7922    1.7054 C   0  0  0  0  0  0  0  0  0  0  0  0
    0.6845   10.6601    1.3200 C   0  0  0  0  0  0  0  0  0  0  0  0
    1.3184    9.4599    0.9580 C   0  0  0  0  0  0  0  0  0  0  0  0
    0.5799    8.3280    0.5727 C   0  0  0  0  0  0  0  0  0  0  0  0
    1.2138    7.1274    0.2107 C   0  0  0  0  0  0  0  0  0  0  0  0
    0.4760    5.9955   -0.1749 C   0  0  0  0  0  0  0  0  0  0  0  0
    1.1097    4.7949   -0.5363 C   0  0  0  0  0  0  0  0  0  0  0  0
    0.3712    3.6627   -0.9205 C   0  0  0  0  0  0  0  0  0  0  0  0
    1.0015    2.4601   -1.2783 C   0  0  0  0  0  0  0  0  0  0  0  0
    0.2749    1.3131   -1.6669 C   0  0  0  0  0  0  0  0  0  0  0  0
    1.0342    0.0975   -2.0237 C   0  0  0  0  0  0  0  0  0  0  0  0
    0.9750   -0.4493   -3.3134 C   0  0  0  0  0  0  0  0  0  0  0  0
    1.6971   -1.5986   -3.6361 C   0  0  0  0  0  0  0  0  0  0  0  0
    2.5030   -2.2103   -2.6756 C   0  0  0  0  0  0  0  0  0  0  0  0
    2.6001   -1.6809   -1.3829 C   0  0  0  0  0  0  0  0  0  0  0  0
    3.4436   -2.3222   -0.3825 C   0  0  0  0  0  0  0  0  0  0  0  0
    4.2824   -1.9111    0.6282 C   0  0  0  0  0  0  0  0  0  0  0  0
    4.6283   -0.6071    0.9754 C   0  0  0  0  0  0  0  0  0  0  0  0
    5.5418   -0.6004    2.0542 C   0  0  0  0  0  0  0  0  0  0  0  0
    6.0492   -1.7855    2.6913 C   0  0  0  0  0  0  0  0  0  0  0  0
    5.6952   -3.1027    2.3179 C   0  0  0  0  0  0  0  0  0  0  0  0
    4.7852   -3.0907    1.2629 C   0  0  0  0  0  0  0  0  0  0  0  0
    4.2262   -4.1686    0.6139 C   0  0  0  0  0  0  0  0  0  0  0  0
    4.2669   -5.6205    0.7418 C   0  0  0  0  0  0  0  0  0  0  0  0
    4.2508   -6.4343   -0.4007 C   0  0  0  0  0  0  0  0  0  0  0  0
    4.2920   -7.8266   -0.2893 C   0  0  0  0  0  0  0  0  0  0  0  0
    4.3440   -8.4235    0.9680 C   0  0  0  0  0  0  0  0  0  0  0  0
    4.3493   -7.6297    2.1128 C   0  0  0  0  0  0  0  0  0  0  0  0
    4.3083   -6.2368    2.0000 C   0  0  0  0  0  0  0  0  0  0  0  0
    3.4254   -3.6978   -0.4026 O   0  0  0  0  0  0  0  0  0  0  0  0
    1.8546   -0.5345   -1.0697 C   0  0  0  0  0  0  0  0  0  0  0  0
   -2.0450   -0.9290   -1.3299 C   0  0  0  0  0  0  0  0  0  0  0  0
   -1.9778   -4.0361   -0.2939 C   0  0  0  0  0  0  0  0  0  0  0  0
   -0.5917   -3.9155   -0.3255 C   0  0  0  0  0  0  0  0  0  0  0  0
    0.0198   -4.9715    0.3875 C   0  0  0  0  0  0  0  0  0  0  0  0
   -0.1219   -6.7974    1.5556 H   0  0  0  0  0  0  0  0  0  0  0  0
   -2.6346   -6.9549    1.5341 H   0  0  0  0  0  0  0  0  0  0  0  0
   -4.7025   -5.9941    2.5097 H   0  0  0  0  0  0  0  0  0  0  0  0
   -6.8272   -7.0974    3.0883 H   0  0  0  0  0  0  0  0  0  0  0  0
   -8.6646   -7.2264    1.4258 H   0  0  0  0  0  0  0  0  0  0  0  0
   -8.3604   -6.2411   -0.8321 H   0  0  0  0  0  0  0  0  0  0  0  0
   -6.2303   -5.1465   -1.4334 H   0  0  0  0  0  0  0  0  0  0  0  0
   -4.3487   -2.6889   -3.1152 H   0  0  0  0  0  0  0  0  0  0  0  0
   -4.2899   -0.6268   -4.4736 H   0  0  0  0  0  0  0  0  0  0  0  0
   -2.8041    1.2401   -3.8429 H   0  0  0  0  0  0  0  0  0  0  0  0
   -2.8518    2.6512   -1.3478 H   0  0  0  0  0  0  0  0  0  0  0  0
   -2.7544    4.9861   -0.6048 H   0  0  0  0  0  0  0  0  0  0  0  0
   -2.6513    7.3198    0.1450 H   0  0  0  0  0  0  0  0  0  0  0  0
   -2.5487    9.6527    0.8926 H   0  0  0  0  0  0  0  0  0  0  0  0
   -2.4443   12.0030    1.6455 H   0  0  0  0  0  0  0  0  0  0  0  0
   -1.1173   13.9678    2.3159 H   0  0  0  0  0  0  0  0  0  0  0  0
    1.3599   13.8453    2.3583 H   0  0  0  0  0  0  0  0  0  0  0  0
    2.5087   11.7584    1.7305 H   0  0  0  0  0  0  0  0  0  0  0  0
    2.4054    9.4064    0.9767 H   0  0  0  0  0  0  0  0  0  0  0  0
    2.3009    7.0734    0.2295 H   0  0  0  0  0  0  0  0  0  0  0  0
    2.1968    4.7398   -0.5173 H   0  0  0  0  0  0  0  0  0  0  0  0
    2.0903    2.4114   -1.2661 H   0  0  0  0  0  0  0  0  0  0  0  0
    0.3564    0.0169   -4.0777 H   0  0  0  0  0  0  0  0  0  0  0  0
    1.6311   -2.0187   -4.6364 H   0  0  0  0  0  0  0  0  0  0  0  0
    3.0600   -3.1060   -2.9432 H   0  0  0  0  0  0  0  0  0  0  0  0
    4.2763    0.2947    0.4960 H   0  0  0  0  0  0  0  0  0  0  0  0
    5.8923    0.3643    2.4239 H   0  0  0  0  0  0  0  0  0  0  0  0
    6.7596   -1.6568    3.5093 H   0  0  0  0  0  0  0  0  0  0  0  0
    6.1063   -3.9805    2.7950 H   0  0  0  0  0  0  0  0  0  0  0  0
    4.2098   -5.9840   -1.3905 H   0  0  0  0  0  0  0  0  0  0  0  0
    4.2809   -8.4415   -1.1854 H   0  0  0  0  0  0  0  0  0  0  0  0
    4.3733   -9.5065    1.0556 H   0  0  0  0  0  0  0  0  0  0  0  0
    4.3778   -8.0936    3.0954 H   0  0  0  0  0  0  0  0  0  0  0  0
    4.2888   -5.6407    2.9088 H   0  0  0  0  0  0  0  0  0  0  0  0
    1.8849   -0.1357   -0.0571 H   0  0  0  0  0  0  0  0  0  0  0  0
   -1.4313   -1.0040   -0.4336 H   0  0  0  0  0  0  0  0  0  0  0  0
   -0.0310   -3.1462   -0.8356 H   0  0  0  0  0  0  0  0  0  0  0  0
    1.1105   -4.9929    0.4305 H   0  0  0  0  0  0  0  0  0  0  0  0
  1  2  4  0
  2  3  4  0
  3  4  4  0
  4  5  1  0
  5  6  4  0
  6  7  4  0
  7  8  4  0
  8  9  4  0
  9 10  4  0
  4 11  4  0
 11 12  4  0
 12 13  1  0
 13 14  4  0
 14 15  4  0
 15 16  4  0
 16 17  4  0
 17 18  1  0
 18 19  4  0
 19 20  4  0
 20 21  4  0
 21 22  4  0
 22 23  4  0
 23 24  4  0
 24 25  4  0
 25 26  4  0
 26 27  4  0
 27 28  4  0
 28 29  4  0
 29 30  4  0
 30 31  4  0
 31 32  4  0
 32 33  4  0
 33 34  4  0
 34 35  4  0
 35 36  4  0
 36 37  4  0
 37 38  4  0
 38 39  4  0
 39 40  1  0
 40 41  4  0
 41 42  4  0
 42 43  4  0
 43 44  4  0
 44 45  1  0
 45 46  4  0
 46 47  4  0
 47 48  4  0
 48 49  4  0
 49 50  4  0
 50 51  4  0
 51 52  4  0
 52 53  1  0
 53 54  4  0
 54 55  4  0
 55 56  4  0
 56 57  4  0
 57 58  4  0
 52 59  4  0
 44 60  4  0
 17 61  4  0
 12 62  4  0
 62 63  4  0
 63 64  4  0
 64  1  4  0
 62  3  4  0
 10  5  4  0
 61 13  4  0
 39 18  4  0
 60 40  4  0
 37 20  4  0
 59 45  4  0
 35 22  4  0
 51 46  4  0
 58 53  4  0
 33 24  4  0
 31 26  4  0
  1 65  1  0
  2 66  1  0
  6 67  1  0
  7 68  1  0
  8 69  1  0
  9 70  1  0
 10 71  1  0
 14 72  1  0
 15 73  1  0
 16 74  1  0
 19 75  1  0
 21 76  1  0
 23 77  1  0
 25 78  1  0
 27 79  1  0
 28 80  1  0
 29 81  1  0
 30 82  1  0
 32 83  1  0
 34 84  1  0
 36 85  1  0
 38 86  1  0
 41 87  1  0
 42 88  1  0
 43 89  1  0
 47 90  1  0
 48 91  1  0
 49 92  1  0
 50 93  1  0
 54 94  1  0
 55 95  1  0
 56 96  1  0
 57 97  1  0
 58 98  1  0
 60 99  1  0
 61100  1  0
 63101  1  0
 64102  1  0
M  END
