
     RDKit          3D

 96110  0  0  0  0  0  0  0  0999 V2000
   11.1972   -2.8583   -2.7097 C   0  0  0  0  0  0  0  0  0  0  0  0
   10.2722   -3.5791   -3.4533 C   0  0  0  0  0  0  0  0  0  0  0  0
    8.9086   -3.3548   -3.2582 C   0  0  0  0  0  0  0  0  0  0  0  0
    8.4538   -2.4228   -2.3328 C   0  0  0  0  0  0  0  0  0  0  0  0
    7.1316   -2.2336   -2.1718 N   0  0  0  0  0  0  0  0  0  0  0  0
    6.7395   -1.3237   -1.2631 C   0  0  0  0  0  0  0  0  0  0  0  0
    5.3881   -1.0962   -1.0584 C   0  0  0  0  0  0  0  0  0  0  0  0
    4.9333   -0.1726   -0.1313 C   0  0  0  0  0  0  0  0  0  0  0  0
    3.6132    0.0098    0.0359 N   0  0  0  0  0  0  0  0  0  0  0  0
    3.1933    0.9120    0.9576 C   0  0  0  0  0  0  0  0  0  0  0  0
    4.1466    1.6409    1.7049 C   0  0  0  0  0  0  0  0  0  0  0  0
    5.4683    1.4629    1.5307 N   0  0  0  0  0  0  0  0  0  0  0  0
    5.8670    0.5579    0.6209 C   0  0  0  0  0  0  0  0  0  0  0  0
    7.2193    0.3331    0.4156 C   0  0  0  0  0  0  0  0  0  0  0  0
    7.6769   -0.5926   -0.5087 C   0  0  0  0  0  0  0  0  0  0  0  0
    8.9991   -0.7779   -0.6689 N   0  0  0  0  0  0  0  0  0  0  0  0
    9.3938   -1.6900   -1.5765 C   0  0  0  0  0  0  0  0  0  0  0  0
   10.7498   -1.9202   -1.7782 C   0  0  0  0  0  0  0  0  0  0  0  0
    3.7274    2.5663    2.6501 C   0  0  0  0  0  0  0  0  0  0  0  0
    2.3774    2.7983    2.8899 C   0  0  0  0  0  0  0  0  0  0  0  0
    1.4300    2.0887    2.1665 C   0  0  0  0  0  0  0  0  0  0  0  0
    1.8249    1.1485    1.1950 C   0  0  0  0  0  0  0  0  0  0  0  0
    0.7766    0.4264    0.4435 C   0  0  0  0  0  0  0  0  0  0  0  0
    0.4971   -0.9131    0.7769 C   0  0  0  0  0  0  0  0  0  0  0  0
   -0.5178   -1.6399    0.1340 C   0  0  0  0  0  0  0  0  0  0  0  0
   -0.7921   -2.9739    0.4763 C   0  0  0  0  0  0  0  0  0  0  0  0
   -1.8117   -3.6992   -0.1622 C   0  0  0  0  0  0  0  0  0  0  0  0
   -2.0833   -5.0340    0.1801 C   0  0  0  0  0  0  0  0  0  0  0  0
   -3.1031   -5.7611   -0.4556 C   0  0  0  0  0  0  0  0  0  0  0  0
   -3.3716   -7.0969   -0.1128 C   0  0  0  0  0  0  0  0  0  0  0  0
   -4.3918   -7.8249   -0.7471 C   0  0  0  0  0  0  0  0  0  0  0  0
   -4.6614   -9.1606   -0.4052 C   0  0  0  0  0  0  0  0  0  0  0  0
   -5.6789   -9.8701   -1.0449 C   0  0  0  0  0  0  0  0  0  0  0  0
   -6.4393   -9.2541   -2.0340 C   0  0  0  0  0  0  0  0  0  0  0  0
   -6.1834   -7.9276   -2.3848 C   0  0  0  0  0  0  0  0  0  0  0  0
   -5.1629   -7.2002   -1.7502 C   0  0  0  0  0  0  0  0  0  0  0  0
   -4.8930   -5.8647   -2.0924 C   0  0  0  0  0  0  0  0  0  0  0  0
   -3.8720   -5.1375   -1.4574 C   0  0  0  0  0  0  0  0  0  0  0  0
   -3.6004   -3.8019   -1.7998 C   0  0  0  0  0  0  0  0  0  0  0  0
   -2.5784   -3.0751   -1.1650 C   0  0  0  0  0  0  0  0  0  0  0  0
   -2.3031   -1.7402   -1.5070 C   0  0  0  0  0  0  0  0  0  0  0  0
   -1.2795   -1.0166   -0.8712 C   0  0  0  0  0  0  0  0  0  0  0  0
   -0.9966    0.3143   -1.2178 C   0  0  0  0  0  0  0  0  0  0  0  0
    0.0250    1.0464   -0.5815 C   0  0  0  0  0  0  0  0  0  0  0  0
    0.2978    2.4282   -1.0282 C   0  0  0  0  0  0  0  0  0  0  0  0
    1.3847    2.6526   -1.8940 C   0  0  0  0  0  0  0  0  0  0  0  0
    1.6806    3.9338   -2.3362 C   0  0  0  0  0  0  0  0  0  0  0  0
    0.8881    4.9975   -1.9165 C   0  0  0  0  0  0  0  0  0  0  0  0
   -0.1901    4.8070   -1.0632 C   0  0  0  0  0  0  0  0  0  0  0  0
   -0.9132    5.8812   -0.6954 N   0  0  0  0  0  0  0  0  0  0  0  0
   -1.9500    5.6856    0.1354 C   0  0  0  0  0  0  0  0  0  0  0  0
   -2.7212    6.7633    0.5414 C   0  0  0  0  0  0  0  0  0  0  0  0
   -3.7973    6.6126    1.4014 C   0  0  0  0  0  0  0  0  0  0  0  0
   -4.5145    7.6897    1.7668 N   0  0  0  0  0  0  0  0  0  0  0  0
   -5.5501    7.4939    2.6042 C   0  0  0  0  0  0  0  0  0  0  0  0
   -6.3234    8.5753    3.0099 C   0  0  0  0  0  0  0  0  0  0  0  0
   -7.4038    8.4107    3.8776 C   0  0  0  0  0  0  0  0  0  0  0  0
   -7.7169    7.1423    4.3481 C   0  0  0  0  0  0  0  0  0  0  0  0
   -6.9464    6.0504    3.9462 C   0  0  0  0  0  0  0  0  0  0  0  0
   -5.8684    6.2042    3.0822 C   0  0  0  0  0  0  0  0  0  0  0  0
   -5.1475    5.1281    2.7154 N   0  0  0  0  0  0  0  0  0  0  0  0
   -4.1158    5.3262    1.8764 C   0  0  0  0  0  0  0  0  0  0  0  0
   -3.3456    4.2491    1.4669 C   0  0  0  0  0  0  0  0  0  0  0  0
   -2.2698    4.4019    0.6064 C   0  0  0  0  0  0  0  0  0  0  0  0
   -1.5496    3.3288    0.2385 N   0  0  0  0  0  0  0  0  0  0  0  0
   -0.5015    3.5075   -0.6026 C   0  0  0  0  0  0  0  0  0  0  0  0
   12.2628   -3.0216   -2.8499 H   0  0  0  0  0  0  0  0  0  0  0  0
   10.6053   -4.3137   -4.1823 H   0  0  0  0  0  0  0  0  0  0  0  0
    8.1817   -3.9181   -3.8386 H   0  0  0  0  0  0  0  0  0  0  0  0
    4.6634   -1.6614   -1.6392 H   0  0  0  0  0  0  0  0  0  0  0  0
    7.9422    0.8982    0.9986 H   0  0  0  0  0  0  0  0  0  0  0  0
   11.4726   -1.3548   -1.1946 H   0  0  0  0  0  0  0  0  0  0  0  0
    4.4748    3.1184    3.2156 H   0  0  0  0  0  0  0  0  0  0  0  0
    2.0687    3.5268    3.6350 H   0  0  0  0  0  0  0  0  0  0  0  0
    0.3709    2.2683    2.3510 H   0  0  0  0  0  0  0  0  0  0  0  0
    1.0880   -1.3939    1.5556 H   0  0  0  0  0  0  0  0  0  0  0  0
   -0.2056   -3.4556    1.2566 H   0  0  0  0  0  0  0  0  0  0  0  0
   -1.4894   -5.5157    0.9549 H   0  0  0  0  0  0  0  0  0  0  0  0
   -2.7755   -7.5782    0.6604 H   0  0  0  0  0  0  0  0  0  0  0  0
   -4.0780   -9.6595    0.3654 H   0  0  0  0  0  0  0  0  0  0  0  0
   -5.8764  -10.9029   -0.7702 H   0  0  0  0  0  0  0  0  0  0  0  0
   -7.2321   -9.8047   -2.5335 H   0  0  0  0  0  0  0  0  0  0  0  0
   -6.7885   -7.4635   -3.1603 H   0  0  0  0  0  0  0  0  0  0  0  0
   -5.4884   -5.3840   -2.8665 H   0  0  0  0  0  0  0  0  0  0  0  0
   -4.1951   -3.3206   -2.5743 H   0  0  0  0  0  0  0  0  0  0  0  0
   -2.8967   -1.2554   -2.2804 H   0  0  0  0  0  0  0  0  0  0  0  0
   -1.5804    0.7991   -1.9991 H   0  0  0  0  0  0  0  0  0  0  0  0
    2.0047    1.8163   -2.2167 H   0  0  0  0  0  0  0  0  0  0  0  0
    2.5226    4.1051   -3.0019 H   0  0  0  0  0  0  0  0  0  0  0  0
    1.1158    6.0040   -2.2604 H   0  0  0  0  0  0  0  0  0  0  0  0
   -2.4740    7.7567    0.1753 H   0  0  0  0  0  0  0  0  0  0  0  0
   -6.0766    9.5678    2.6402 H   0  0  0  0  0  0  0  0  0  0  0  0
   -7.9948    9.2711    4.1816 H   0  0  0  0  0  0  0  0  0  0  0  0
   -8.5559    6.9987    5.0246 H   0  0  0  0  0  0  0  0  0  0  0  0
   -7.1896    5.0560    4.3129 H   0  0  0  0  0  0  0  0  0  0  0  0
   -3.5923    3.2549    1.8313 H   0  0  0  0  0  0  0  0  0  0  0  0
  1  2  4  0
  2  3  4  0
  3  4  4  0
  4  5  4  0
  5  6  4  0
  6  7  4  0
  7  8  4  0
  8  9  4  0
  9 10  4  0
 10 11  4  0
 11 12  4  0
 12 13  4  0
 13 14  4  0
 14 15  4  0
 15 16  4  0
 16 17  4  0
 17 18  4  0
 11 19  4  0
 19 20  4  0
 20 21  4  0
 21 22  4  0
 22 23  1  0
 23 24  4  0
 24 25  4  0
 25 26  4  0
 26 27  4  0
 27 28  4  0
 28 29  4  0
 29 30  4  0
 30 31  4  0
 31 32  4  0
 32 33  4  0
 33 34  4  0
 34 35  4  0
 35 36  4  0
 36 37  4  0
 37 38  4  0
 38 39  4  0
 39 40  4  0
 40 41  4  0
 41 42  4  0
 42 43  4  0
 43 44  4  0
 44 45  1  0
 45 46  4  0
 46 47  4  0
 47 48  4  0
 48 49  4  0
 49 50  4  0
 50 51  4  0
 51 52  4  0
 52 53  4  0
 53 54  4  0
 54 55  4  0
 55 56  4  0
 56 57  4  0
 57 58  4  0
 58 59  4  0
 59 60  4  0
 60 61  4  0
 61 62  4  0
 62 63  4  0
 63 64  4  0
 64 65  4  0
 65 66  4  0
 18  1  4  0
 44 23  4  0
 66 45  4  0
 17  4  4  0
 42 25  4  0
 66 49  4  0
 15  6  4  0
 40 27  4  0
 64 51  4  0
 13  8  4  0
 38 29  4  0
 62 53  4  0
 22 10  4  0
 36 31  4  0
 60 55  4  0
  1 67  1  0
  2 68  1  0
  3 69  1  0
  7 70  1  0
 14 71  1  0
 18 72  1  0
 19 73  1  0
 20 74  1  0
 21 75  1  0
 24 76  1  0
 26 77  1  0
 28 78  1  0
 30 79  1  0
 32 80  1  0
 33 81  1  0
 34 82  1  0
 35 83  1  0
 37 84  1  0
 39 85  1  0
 41 86  1  0
 43 87  1  0
 46 88  1  0
 47 89  1  0
 48 90  1  0
 52 91  1  0
 56 92  1  0
 57 93  1  0
 58 94  1  0
 59 95  1  0
 63 96  1  0
M  END
