
     RDKit          3D

100114  0  0  0  0  0  0  0  0999 V2000
   -4.9819   -1.1329   -6.3821 C   0  0  0  0  0  0  0  0  0  0  0  0
   -3.7622   -0.4685   -6.4404 C   0  0  0  0  0  0  0  0  0  0  0  0
   -2.9190   -0.4610   -5.3248 C   0  0  0  0  0  0  0  0  0  0  0  0
   -3.2657   -1.1035   -4.1435 C   0  0  0  0  0  0  0  0  0  0  0  0
   -2.4204   -1.0741   -3.1004 N   0  0  0  0  0  0  0  0  0  0  0  0
   -2.7656   -1.6835   -1.9554 C   0  0  0  0  0  0  0  0  0  0  0  0
   -1.9154   -1.6108   -0.8650 C   0  0  0  0  0  0  0  0  0  0  0  0
   -2.2168   -2.1952    0.3911 C   0  0  0  0  0  0  0  0  0  0  0  0
   -3.3955   -2.9486    0.5053 C   0  0  0  0  0  0  0  0  0  0  0  0
   -4.2513   -3.0256   -0.5831 C   0  0  0  0  0  0  0  0  0  0  0  0
   -3.9638   -2.3883   -1.8034 C   0  0  0  0  0  0  0  0  0  0  0  0
   -4.8366   -2.4285   -2.8972 C   0  0  0  0  0  0  0  0  0  0  0  0
   -4.5006   -1.7769   -4.0900 C   0  0  0  0  0  0  0  0  0  0  0  0
   -5.3527   -1.7873   -5.2092 C   0  0  0  0  0  0  0  0  0  0  0  0
   -3.7413   -3.6000    1.6216 N   0  0  0  0  0  0  0  0  0  0  0  0
   -2.9376   -3.5498    2.6905 C   0  0  0  0  0  0  0  0  0  0  0  0
   -3.3194   -4.2680    3.8160 C   0  0  0  0  0  0  0  0  0  0  0  0
   -2.5460   -4.2936    4.9771 C   0  0  0  0  0  0  0  0  0  0  0  0
   -1.3548   -3.5883    5.0186 C   0  0  0  0  0  0  0  0  0  0  0  0
   -0.9542   -2.8575    3.9010 C   0  0  0  0  0  0  0  0  0  0  0  0
   -1.7393   -2.8117    2.7189 C   0  0  0  0  0  0  0  0  0  0  0  0
   -1.3982   -2.0725    1.5489 C   0  0  0  0  0  0  0  0  0  0  0  0
   -0.2156   -1.1687    1.5438 C   0  0  0  0  0  0  0  0  0  0  0  0
    1.0548   -1.7241    1.2961 C   0  0  0  0  0  0  0  0  0  0  0  0
    2.2173   -0.9378    1.2946 C   0  0  0  0  0  0  0  0  0  0  0  0
    3.4805   -1.5024    1.0562 C   0  0  0  0  0  0  0  0  0  0  0  0
    4.6454   -0.7174    1.0582 C   0  0  0  0  0  0  0  0  0  0  0  0
    5.9096   -1.2830    0.8245 C   0  0  0  0  0  0  0  0  0  0  0  0
    7.0758   -0.4993    0.8268 C   0  0  0  0  0  0  0  0  0  0  0  0
    8.3403   -1.0664    0.5947 C   0  0  0  0  0  0  0  0  0  0  0  0
    9.5062   -0.2830    0.5973 C   0  0  0  0  0  0  0  0  0  0  0  0
   10.7707   -0.8494    0.3655 C   0  0  0  0  0  0  0  0  0  0  0  0
   11.9200   -0.0576    0.3717 C   0  0  0  0  0  0  0  0  0  0  0  0
   11.8202    1.3096    0.6095 C   0  0  0  0  0  0  0  0  0  0  0  0
   10.5710    1.8872    0.8413 C   0  0  0  0  0  0  0  0  0  0  0  0
    9.4050    1.1037    0.8381 C   0  0  0  0  0  0  0  0  0  0  0  0
    8.1402    1.6696    1.0695 C   0  0  0  0  0  0  0  0  0  0  0  0
    6.9744    0.8849    1.0671 C   0  0  0  0  0  0  0  0  0  0  0  0
    5.7093    1.4505    1.2996 C   0  0  0  0  0  0  0  0  0  0  0  0
    4.5437    0.6660    1.2995 C   0  0  0  0  0  0  0  0  0  0  0  0
    3.2791    1.2306    1.5352 C   0  0  0  0  0  0  0  0  0  0  0  0
    2.1157    0.4443    1.5392 C   0  0  0  0  0  0  0  0  0  0  0  0
    0.8539    1.0092    1.7800 C   0  0  0  0  0  0  0  0  0  0  0  0
   -0.3191    0.2294    1.7829 C   0  0  0  0  0  0  0  0  0  0  0  0
   -1.6211    0.9040    2.0335 C   0  0  0  0  0  0  0  0  0  0  0  0
   -2.1845    0.9212    3.3410 C   0  0  0  0  0  0  0  0  0  0  0  0
   -1.5244    0.4517    4.5052 C   0  0  0  0  0  0  0  0  0  0  0  0
   -2.1407    0.4737    5.7552 C   0  0  0  0  0  0  0  0  0  0  0  0
   -3.4267    0.9755    5.8692 C   0  0  0  0  0  0  0  0  0  0  0  0
   -4.0765    1.4626    4.7344 C   0  0  0  0  0  0  0  0  0  0  0  0
   -3.4785    1.4542    3.4810 C   0  0  0  0  0  0  0  0  0  0  0  0
   -4.1711    1.9669    2.4570 N   0  0  0  0  0  0  0  0  0  0  0  0
   -3.6148    2.0174    1.2415 C   0  0  0  0  0  0  0  0  0  0  0  0
   -4.3571    2.5839    0.2169 C   0  0  0  0  0  0  0  0  0  0  0  0
   -3.8535    2.7101   -1.0890 C   0  0  0  0  0  0  0  0  0  0  0  0
   -4.6052    3.2699   -2.1293 C   0  0  0  0  0  0  0  0  0  0  0  0
   -4.0600    3.3699   -3.4141 C   0  0  0  0  0  0  0  0  0  0  0  0
   -4.7864    3.9113   -4.4902 C   0  0  0  0  0  0  0  0  0  0  0  0
   -4.2110    3.9941   -5.7563 C   0  0  0  0  0  0  0  0  0  0  0  0
   -2.9118    3.5392   -5.9502 C   0  0  0  0  0  0  0  0  0  0  0  0
   -2.1941    3.0040   -4.8763 C   0  0  0  0  0  0  0  0  0  0  0  0
   -2.7441    2.9081   -3.6049 C   0  0  0  0  0  0  0  0  0  0  0  0
   -2.0119    2.3903   -2.6040 N   0  0  0  0  0  0  0  0  0  0  0  0
   -2.5579    2.2719   -1.3815 C   0  0  0  0  0  0  0  0  0  0  0  0
   -1.8256    1.6939   -0.3547 C   0  0  0  0  0  0  0  0  0  0  0  0
   -2.3292    1.5286    0.9640 C   0  0  0  0  0  0  0  0  0  0  0  0
   -5.6415   -1.1425   -7.2460 H   0  0  0  0  0  0  0  0  0  0  0  0
   -3.4604    0.0438   -7.3503 H   0  0  0  0  0  0  0  0  0  0  0  0
   -1.9635    0.0548   -5.3820 H   0  0  0  0  0  0  0  0  0  0  0  0
   -0.9842   -1.0667   -1.0075 H   0  0  0  0  0  0  0  0  0  0  0  0
   -5.1721   -3.5955   -0.4715 H   0  0  0  0  0  0  0  0  0  0  0  0
   -5.7802   -2.9635   -2.8181 H   0  0  0  0  0  0  0  0  0  0  0  0
   -6.3079   -2.3059   -5.1703 H   0  0  0  0  0  0  0  0  0  0  0  0
   -4.2509   -4.8296    3.7874 H   0  0  0  0  0  0  0  0  0  0  0  0
   -2.8780   -4.8668    5.8382 H   0  0  0  0  0  0  0  0  0  0  0  0
   -0.7380   -3.6023    5.9130 H   0  0  0  0  0  0  0  0  0  0  0  0
   -0.0113   -2.3187    3.9594 H   0  0  0  0  0  0  0  0  0  0  0  0
    1.1317   -2.7942    1.1038 H   0  0  0  0  0  0  0  0  0  0  0  0
    3.5590   -2.5714    0.8656 H   0  0  0  0  0  0  0  0  0  0  0  0
    5.9876   -2.3526    0.6376 H   0  0  0  0  0  0  0  0  0  0  0  0
    8.4202   -2.1361    0.4091 H   0  0  0  0  0  0  0  0  0  0  0  0
   10.8696   -1.9161    0.1773 H   0  0  0  0  0  0  0  0  0  0  0  0
   12.8918   -0.5094    0.1908 H   0  0  0  0  0  0  0  0  0  0  0  0
   12.7138    1.9281    0.6150 H   0  0  0  0  0  0  0  0  0  0  0  0
   10.5140    2.9577    1.0255 H   0  0  0  0  0  0  0  0  0  0  0  0
    8.0630    2.7395    1.2546 H   0  0  0  0  0  0  0  0  0  0  0  0
    5.6310    2.5208    1.4836 H   0  0  0  0  0  0  0  0  0  0  0  0
    3.1993    2.3009    1.7181 H   0  0  0  0  0  0  0  0  0  0  0  0
    0.7734    2.0802    1.9658 H   0  0  0  0  0  0  0  0  0  0  0  0
   -0.5089    0.0681    4.4459 H   0  0  0  0  0  0  0  0  0  0  0  0
   -1.6163    0.0999    6.6303 H   0  0  0  0  0  0  0  0  0  0  0  0
   -3.9258    0.9981    6.8339 H   0  0  0  0  0  0  0  0  0  0  0  0
   -5.0820    1.8665    4.8308 H   0  0  0  0  0  0  0  0  0  0  0  0
   -5.3593    2.9394    0.4482 H   0  0  0  0  0  0  0  0  0  0  0  0
   -5.6180    3.6173   -1.9417 H   0  0  0  0  0  0  0  0  0  0  0  0
   -5.8031    4.2697   -4.3457 H   0  0  0  0  0  0  0  0  0  0  0  0
   -4.7742    4.4117   -6.5870 H   0  0  0  0  0  0  0  0  0  0  0  0
   -2.4514    3.5979   -6.9330 H   0  0  0  0  0  0  0  0  0  0  0  0
   -1.1779    2.6510   -5.0352 H   0  0  0  0  0  0  0  0  0  0  0  0
   -0.8232    1.3536   -0.6064 H   0  0  0  0  0  0  0  0  0  0  0  0
  1  2  4  0
  2  3  4  0
  3  4  4  0
  4  5  4  0
  5  6  4  0
  6  7  4  0
  7  8  4  0
  8  9  4  0
  9 10  4  0
 10 11  4  0
 11 12  4  0
 12 13  4  0
 13 14  4  0
  9 15  4  0
 15 16  4  0
 16 17  4  0
 17 18  4  0
 18 19  4  0
 19 20  4  0
 20 21  4  0
 21 22  4  0
 22 23  1  0
 23 24  4  0
 24 25  4  0
 25 26  4  0
 26 27  4  0
 27 28  4  0
 28 29  4  0
 29 30  4  0
 30 31  4  0
 31 32  4  0
 32 33  4  0
 33 34  4  0
 34 35  4  0
 35 36  4  0
 36 37  4  0
 37 38  4  0
 38 39  4  0
 39 40  4  0
 40 41  4  0
 41 42  4  0
 42 43  4  0
 43 44  4  0
 44 45  1  0
 45 46  4  0
 46 47  4  0
 47 48  4  0
 48 49  4  0
 49 50  4  0
 50 51  4  0
 51 52  4  0
 52 53  4  0
 53 54  4  0
 54 55  4  0
 55 56  4  0
 56 57  4  0
 57 58  4  0
 58 59  4  0
 59 60  4  0
 60 61  4  0
 61 62  4  0
 62 63  4  0
 63 64  4  0
 64 65  4  0
 65 66  4  0
 14  1  4  0
 21 16  4  0
 44 23  4  0
 66 45  4  0
 13  4  4  0
 42 25  4  0
 51 46  4  0
 66 53  4  0
 11  6  4  0
 40 27  4  0
 64 55  4  0
 22  8  4  0
 38 29  4  0
 62 57  4  0
 36 31  4  0
  1 67  1  0
  2 68  1  0
  3 69  1  0
  7 70  1  0
 10 71  1  0
 12 72  1  0
 14 73  1  0
 17 74  1  0
 18 75  1  0
 19 76  1  0
 20 77  1  0
 24 78  1  0
 26 79  1  0
 28 80  1  0
 30 81  1  0
 32 82  1  0
 33 83  1  0
 34 84  1  0
 35 85  1  0
 37 86  1  0
 39 87  1  0
 41 88  1  0
 43 89  1  0
 47 90  1  0
 48 91  1  0
 49 92  1  0
 50 93  1  0
 54 94  1  0
 56 95  1  0
 58 96  1  0
 59 97  1  0
 60 98  1  0
 61 99  1  0
 65100  1  0
M  END
