
     RDKit          3D

100114  0  0  0  0  0  0  0  0999 V2000
   -8.9200    7.0515   -0.1483 C   0  0  0  0  0  0  0  0  0  0  0  0
   -8.1699    6.0463    0.4577 C   0  0  0  0  0  0  0  0  0  0  0  0
   -7.2424    5.3024   -0.2935 C   0  0  0  0  0  0  0  0  0  0  0  0
   -6.4726    4.2861    0.2817 C   0  0  0  0  0  0  0  0  0  0  0  0
   -5.5608    3.5688   -0.5003 C   0  0  0  0  0  0  0  0  0  0  0  0
   -4.7672    2.5390    0.0378 C   0  0  0  0  0  0  0  0  0  0  0  0
   -3.8661    1.8311   -0.7403 C   0  0  0  0  0  0  0  0  0  0  0  0
   -3.1383    0.8536   -0.1780 N   0  0  0  0  0  0  0  0  0  0  0  0
   -2.2526    0.1810   -0.9326 C   0  0  0  0  0  0  0  0  0  0  0  0
   -1.4759   -0.8062   -0.3446 C   0  0  0  0  0  0  0  0  0  0  0  0
   -0.4767   -1.5010   -1.0495 C   0  0  0  0  0  0  0  0  0  0  0  0
    0.4283   -2.4449   -0.3612 C   0  0  0  0  0  0  0  0  0  0  0  0
    0.4443   -3.7919   -0.7733 C   0  0  0  0  0  0  0  0  0  0  0  0
    1.2823   -4.7430   -0.1705 C   0  0  0  0  0  0  0  0  0  0  0  0
    1.2849   -6.0843   -0.5874 C   0  0  0  0  0  0  0  0  0  0  0  0
    2.1231   -7.0370    0.0148 C   0  0  0  0  0  0  0  0  0  0  0  0
    2.1245   -8.3790   -0.4006 C   0  0  0  0  0  0  0  0  0  0  0  0
    2.9632   -9.3323    0.2013 C   0  0  0  0  0  0  0  0  0  0  0  0
    2.9643  -10.6748   -0.2144 C   0  0  0  0  0  0  0  0  0  0  0  0
    3.8030  -11.6276    0.3873 C   0  0  0  0  0  0  0  0  0  0  0  0
    3.8048  -12.9698   -0.0276 C   0  0  0  0  0  0  0  0  0  0  0  0
    4.6443  -13.9043    0.5807 C   0  0  0  0  0  0  0  0  0  0  0  0
    5.4921  -13.5095    1.6108 C   0  0  0  0  0  0  0  0  0  0  0  0
    5.5017  -12.1796    2.0342 C   0  0  0  0  0  0  0  0  0  0  0  0
    4.6628  -11.2273    1.4320 C   0  0  0  0  0  0  0  0  0  0  0  0
    4.6609   -9.8853    1.8469 C   0  0  0  0  0  0  0  0  0  0  0  0
    3.8215   -8.9329    1.2442 C   0  0  0  0  0  0  0  0  0  0  0  0
    3.8193   -7.5905    1.6596 C   0  0  0  0  0  0  0  0  0  0  0  0
    2.9803   -6.6377    1.0580 C   0  0  0  0  0  0  0  0  0  0  0  0
    2.9765   -5.2956    1.4746 C   0  0  0  0  0  0  0  0  0  0  0  0
    2.1360   -4.3441    0.8734 C   0  0  0  0  0  0  0  0  0  0  0  0
    2.1270   -3.0039    1.2925 C   0  0  0  0  0  0  0  0  0  0  0  0
    1.2869   -2.0426    0.6966 C   0  0  0  0  0  0  0  0  0  0  0  0
    1.3164   -0.6554    1.2045 C   0  0  0  0  0  0  0  0  0  0  0  0
    0.9058   -0.3687    2.5126 C   0  0  0  0  0  0  0  0  0  0  0  0
    0.8165    0.9511    2.9523 C   0  0  0  0  0  0  0  0  0  0  0  0
    1.1323    2.0063    2.0833 C   0  0  0  0  0  0  0  0  0  0  0  0
    1.0007    3.3431    2.4714 C   0  0  0  0  0  0  0  0  0  0  0  0
    1.3017    4.3679    1.5686 C   0  0  0  0  0  0  0  0  0  0  0  0
    1.1728    5.7264    1.9132 C   0  0  0  0  0  0  0  0  0  0  0  0
    1.4658    6.7382    1.0133 C   0  0  0  0  0  0  0  0  0  0  0  0
    1.3256    8.0191    1.3932 N   0  0  0  0  0  0  0  0  0  0  0  0
    1.6099    8.9982    0.5160 C   0  0  0  0  0  0  0  0  0  0  0  0
    1.4668   10.3240    0.9033 C   0  0  0  0  0  0  0  0  0  0  0  0
    1.7484   11.3803    0.0316 C   0  0  0  0  0  0  0  0  0  0  0  0
    2.1842   11.1134   -1.2610 C   0  0  0  0  0  0  0  0  0  0  0  0
    2.3365    9.7923   -1.6759 C   0  0  0  0  0  0  0  0  0  0  0  0
    2.0517    8.7341   -0.7944 C   0  0  0  0  0  0  0  0  0  0  0  0
    2.1935    7.3961   -1.1772 C   0  0  0  0  0  0  0  0  0  0  0  0
    1.9001    6.3717   -0.2705 C   0  0  0  0  0  0  0  0  0  0  0  0
    2.0294    5.0129   -0.6142 C   0  0  0  0  0  0  0  0  0  0  0  0
    1.7390    4.0014    0.2862 C   0  0  0  0  0  0  0  0  0  0  0  0
    1.8833    2.7215   -0.0934 N   0  0  0  0  0  0  0  0  0  0  0  0
    1.5788    1.7423    0.7764 C   0  0  0  0  0  0  0  0  0  0  0  0
    1.6811    0.4184    0.3721 C   0  0  0  0  0  0  0  0  0  0  0  0
   -0.3200   -1.2283   -2.4144 C   0  0  0  0  0  0  0  0  0  0  0  0
   -1.1106   -0.2647   -3.0387 C   0  0  0  0  0  0  0  0  0  0  0  0
   -2.0634    0.4522   -2.2991 C   0  0  0  0  0  0  0  0  0  0  0  0
   -2.8405    1.4600   -2.8779 C   0  0  0  0  0  0  0  0  0  0  0  0
   -3.7579    2.1716   -2.0980 C   0  0  0  0  0  0  0  0  0  0  0  0
   -4.5514    3.2011   -2.6364 C   0  0  0  0  0  0  0  0  0  0  0  0
   -5.4544    3.9072   -1.8589 C   0  0  0  0  0  0  0  0  0  0  0  0
   -6.1877    4.8805   -2.4230 N   0  0  0  0  0  0  0  0  0  0  0  0
   -7.0623    5.5653   -1.6649 C   0  0  0  0  0  0  0  0  0  0  0  0
   -7.8229    6.5725   -2.2433 C   0  0  0  0  0  0  0  0  0  0  0  0
   -8.7465    7.3156   -1.5019 C   0  0  0  0  0  0  0  0  0  0  0  0
   -9.6363    7.6253    0.4338 H   0  0  0  0  0  0  0  0  0  0  0  0
   -8.3112    5.8454    1.5172 H   0  0  0  0  0  0  0  0  0  0  0  0
   -6.5830    4.0532    1.3383 H   0  0  0  0  0  0  0  0  0  0  0  0
   -4.8461    2.2801    1.0914 H   0  0  0  0  0  0  0  0  0  0  0  0
   -1.6294   -1.0098    0.7134 H   0  0  0  0  0  0  0  0  0  0  0  0
   -0.2224   -4.1039   -1.5767 H   0  0  0  0  0  0  0  0  0  0  0  0
    0.6217   -6.3916   -1.3940 H   0  0  0  0  0  0  0  0  0  0  0  0
    1.4606   -8.6881   -1.2062 H   0  0  0  0  0  0  0  0  0  0  0  0
    2.3010  -10.9844   -1.0201 H   0  0  0  0  0  0  0  0  0  0  0  0
    3.1492  -13.2979   -0.8312 H   0  0  0  0  0  0  0  0  0  0  0  0
    4.6351  -14.9394    0.2494 H   0  0  0  0  0  0  0  0  0  0  0  0
    6.1467  -14.2354    2.0859 H   0  0  0  0  0  0  0  0  0  0  0  0
    6.1714  -11.8902    2.8409 H   0  0  0  0  0  0  0  0  0  0  0  0
    5.3244   -9.5776    2.6531 H   0  0  0  0  0  0  0  0  0  0  0  0
    4.4829   -7.2823    2.4658 H   0  0  0  0  0  0  0  0  0  0  0  0
    3.6382   -4.9869    2.2819 H   0  0  0  0  0  0  0  0  0  0  0  0
    2.7920   -2.6933    2.0979 H   0  0  0  0  0  0  0  0  0  0  0  0
    0.6124   -1.1723    3.1853 H   0  0  0  0  0  0  0  0  0  0  0  0
    0.4695    1.1506    3.9633 H   0  0  0  0  0  0  0  0  0  0  0  0
    0.6483    3.5856    3.4709 H   0  0  0  0  0  0  0  0  0  0  0  0
    0.8338    6.0078    2.9079 H   0  0  0  0  0  0  0  0  0  0  0  0
    1.1263   10.5409    1.9130 H   0  0  0  0  0  0  0  0  0  0  0  0
    1.6255   12.4065    0.3676 H   0  0  0  0  0  0  0  0  0  0  0  0
    2.4048   11.9301   -1.9435 H   0  0  0  0  0  0  0  0  0  0  0  0
    2.6779    9.5910   -2.6887 H   0  0  0  0  0  0  0  0  0  0  0  0
    2.5325    7.1519   -2.1813 H   0  0  0  0  0  0  0  0  0  0  0  0
    2.3632    4.7303   -1.6102 H   0  0  0  0  0  0  0  0  0  0  0  0
    2.0117    0.2220   -0.6461 H   0  0  0  0  0  0  0  0  0  0  0  0
    0.4462   -1.7405   -2.9929 H   0  0  0  0  0  0  0  0  0  0  0  0
   -0.9579   -0.0574   -4.0952 H   0  0  0  0  0  0  0  0  0  0  0  0
   -2.7182    1.7025   -3.9306 H   0  0  0  0  0  0  0  0  0  0  0  0
   -4.4650    3.4637   -3.6885 H   0  0  0  0  0  0  0  0  0  0  0  0
   -7.6926    6.7848   -3.3018 H   0  0  0  0  0  0  0  0  0  0  0  0
   -9.3257    8.0972   -1.9864 H   0  0  0  0  0  0  0  0  0  0  0  0
  1  2  4  0
  2  3  4  0
  3  4  4  0
  4  5  4  0
  5  6  4  0
  6  7  4  0
  7  8  4  0
  8  9  4  0
  9 10  4  0
 10 11  4  0
 11 12  1  0
 12 13  4  0
 13 14  4  0
 14 15  4  0
 15 16  4  0
 16 17  4  0
 17 18  4  0
 18 19  4  0
 19 20  4  0
 20 21  4  0
 21 22  4  0
 22 23  4  0
 23 24  4  0
 24 25  4  0
 25 26  4  0
 26 27  4  0
 27 28  4  0
 28 29  4  0
 29 30  4  0
 30 31  4  0
 31 32  4  0
 32 33  4  0
 33 34  1  0
 34 35  4  0
 35 36  4  0
 36 37  4  0
 37 38  4  0
 38 39  4  0
 39 40  4  0
 40 41  4  0
 41 42  4  0
 42 43  4  0
 43 44  4  0
 44 45  4  0
 45 46  4  0
 46 47  4  0
 47 48  4  0
 48 49  4  0
 49 50  4  0
 50 51  4  0
 51 52  4  0
 52 53  4  0
 53 54  4  0
 54 55  4  0
 11 56  4  0
 56 57  4  0
 57 58  4  0
 58 59  4  0
 59 60  4  0
 60 61  4  0
 61 62  4  0
 62 63  4  0
 63 64  4  0
 64 65  4  0
 65 66  4  0
 66  1  4  0
 64  3  4  0
 62  5  4  0
 60  7  4  0
 58  9  4  0
 33 12  4  0
 55 34  4  0
 31 14  4  0
 54 37  4  0
 29 16  4  0
 52 39  4  0
 27 18  4  0
 50 41  4  0
 25 20  4  0
 48 43  4  0
  1 67  1  0
  2 68  1  0
  4 69  1  0
  6 70  1  0
 10 71  1  0
 13 72  1  0
 15 73  1  0
 17 74  1  0
 19 75  1  0
 21 76  1  0
 22 77  1  0
 23 78  1  0
 24 79  1  0
 26 80  1  0
 28 81  1  0
 30 82  1  0
 32 83  1  0
 35 84  1  0
 36 85  1  0
 38 86  1  0
 40 87  1  0
 44 88  1  0
 45 89  1  0
 46 90  1  0
 47 91  1  0
 49 92  1  0
 51 93  1  0
 55 94  1  0
 56 95  1  0
 57 96  1  0
 59 97  1  0
 61 98  1  0
 65 99  1  0
 66100  1  0
M  END
