
     RDKit          3D

100114  0  0  0  0  0  0  0  0999 V2000
   -2.8847    3.7233    5.8171 C   0  0  0  0  0  0  0  0  0  0  0  0
   -1.5616    3.3281    5.6563 C   0  0  0  0  0  0  0  0  0  0  0  0
   -1.1453    2.7725    4.4430 C   0  0  0  0  0  0  0  0  0  0  0  0
   -2.0235    2.5946    3.3821 C   0  0  0  0  0  0  0  0  0  0  0  0
   -1.5784    2.0432    2.2428 N   0  0  0  0  0  0  0  0  0  0  0  0
   -2.4125    1.8538    1.1940 C   0  0  0  0  0  0  0  0  0  0  0  0
   -3.7525    2.2666    1.2681 C   0  0  0  0  0  0  0  0  0  0  0  0
   -4.2186    2.8308    2.4620 C   0  0  0  0  0  0  0  0  0  0  0  0
   -3.3554    3.0018    3.5466 C   0  0  0  0  0  0  0  0  0  0  0  0
   -3.7824    3.5640    4.7635 C   0  0  0  0  0  0  0  0  0  0  0  0
   -4.6078    2.1172    0.1683 C   0  0  0  0  0  0  0  0  0  0  0  0
   -4.1704    1.6066   -1.0367 C   0  0  0  0  0  0  0  0  0  0  0  0
   -5.0582    1.5378   -2.0433 N   0  0  0  0  0  0  0  0  0  0  0  0
   -4.6672    1.0581   -3.2351 C   0  0  0  0  0  0  0  0  0  0  0  0
   -5.5884    0.9515   -4.2691 C   0  0  0  0  0  0  0  0  0  0  0  0
   -5.2282    0.4612   -5.5280 C   0  0  0  0  0  0  0  0  0  0  0  0
   -3.9152    0.0752   -5.7682 C   0  0  0  0  0  0  0  0  0  0  0  0
   -2.9717    0.1813   -4.7496 C   0  0  0  0  0  0  0  0  0  0  0  0
   -3.3449    0.6614   -3.4817 C   0  0  0  0  0  0  0  0  0  0  0  0
   -2.4331    0.7534   -2.4237 C   0  0  0  0  0  0  0  0  0  0  0  0
   -2.8317    1.1955   -1.1466 C   0  0  0  0  0  0  0  0  0  0  0  0
   -1.9689    1.2518   -0.0042 C   0  0  0  0  0  0  0  0  0  0  0  0
   -0.6089    0.6409   -0.0314 C   0  0  0  0  0  0  0  0  0  0  0  0
    0.5161    1.4882   -0.0851 C   0  0  0  0  0  0  0  0  0  0  0  0
    1.8272    0.9864   -0.0509 C   0  0  0  0  0  0  0  0  0  0  0  0
    2.9413    1.8405   -0.1055 C   0  0  0  0  0  0  0  0  0  0  0  0
    4.2531    1.3382   -0.0660 C   0  0  0  0  0  0  0  0  0  0  0  0
    5.3679    2.1913   -0.1236 C   0  0  0  0  0  0  0  0  0  0  0  0
    6.6798    1.6890   -0.0828 C   0  0  0  0  0  0  0  0  0  0  0  0
    7.7942    2.5432   -0.1398 C   0  0  0  0  0  0  0  0  0  0  0  0
    9.1056    2.0411   -0.0983 C   0  0  0  0  0  0  0  0  0  0  0  0
   10.2198    2.8947   -0.1551 C   0  0  0  0  0  0  0  0  0  0  0  0
   11.5167    2.3804   -0.1126 C   0  0  0  0  0  0  0  0  0  0  0  0
   11.7162    1.0071   -0.0126 C   0  0  0  0  0  0  0  0  0  0  0  0
   10.6192    0.1461    0.0450 C   0  0  0  0  0  0  0  0  0  0  0  0
    9.3080    0.6484    0.0030 C   0  0  0  0  0  0  0  0  0  0  0  0
    8.1935   -0.2048    0.0602 C   0  0  0  0  0  0  0  0  0  0  0  0
    6.8819    0.2987    0.0187 C   0  0  0  0  0  0  0  0  0  0  0  0
    5.7668   -0.5542    0.0773 C   0  0  0  0  0  0  0  0  0  0  0  0
    4.4553   -0.0515    0.0357 C   0  0  0  0  0  0  0  0  0  0  0  0
    3.3408   -0.9045    0.0950 C   0  0  0  0  0  0  0  0  0  0  0  0
    2.0299   -0.4016    0.0513 C   0  0  0  0  0  0  0  0  0  0  0  0
    0.9172   -1.2554    0.1048 C   0  0  0  0  0  0  0  0  0  0  0  0
   -0.4032   -0.7642    0.0440 C   0  0  0  0  0  0  0  0  0  0  0  0
   -1.5277   -1.7434    0.0257 C   0  0  0  0  0  0  0  0  0  0  0  0
   -1.8358   -2.4602   -1.1817 C   0  0  0  0  0  0  0  0  0  0  0  0
   -1.0771   -2.3907   -2.3716 C   0  0  0  0  0  0  0  0  0  0  0  0
   -1.4581   -3.0840   -3.5253 C   0  0  0  0  0  0  0  0  0  0  0  0
   -0.7190   -3.0068   -4.7201 C   0  0  0  0  0  0  0  0  0  0  0  0
   -1.1453   -3.6920   -5.8547 C   0  0  0  0  0  0  0  0  0  0  0  0
   -2.3042   -4.4571   -5.7970 C   0  0  0  0  0  0  0  0  0  0  0  0
   -3.0274   -4.5350   -4.6026 C   0  0  0  0  0  0  0  0  0  0  0  0
   -2.6234   -3.8601   -3.4579 C   0  0  0  0  0  0  0  0  0  0  0  0
   -3.3468   -3.9659   -2.3322 N   0  0  0  0  0  0  0  0  0  0  0  0
   -2.9657   -3.2922   -1.2341 C   0  0  0  0  0  0  0  0  0  0  0  0
   -3.7374   -3.4319   -0.0991 C   0  0  0  0  0  0  0  0  0  0  0  0
   -3.4170   -2.7887    1.1035 C   0  0  0  0  0  0  0  0  0  0  0  0
   -4.2074   -2.9785    2.2437 C   0  0  0  0  0  0  0  0  0  0  0  0
   -3.8756   -2.3491    3.4452 C   0  0  0  0  0  0  0  0  0  0  0  0
   -4.6399   -2.5176    4.6150 C   0  0  0  0  0  0  0  0  0  0  0  0
   -4.2690   -1.8770    5.7956 C   0  0  0  0  0  0  0  0  0  0  0  0
   -3.1386   -1.0679    5.8086 C   0  0  0  0  0  0  0  0  0  0  0  0
   -2.3846   -0.9096    4.6417 C   0  0  0  0  0  0  0  0  0  0  0  0
   -2.7337   -1.5348    3.4527 C   0  0  0  0  0  0  0  0  0  0  0  0
   -1.9778   -1.3494    2.3574 N   0  0  0  0  0  0  0  0  0  0  0  0
   -2.2986   -1.9433    1.1886 C   0  0  0  0  0  0  0  0  0  0  0  0
   -3.2163    4.1554    6.7576 H   0  0  0  0  0  0  0  0  0  0  0  0
   -0.8499    3.4485    6.4688 H   0  0  0  0  0  0  0  0  0  0  0  0
   -0.1103    2.4606    4.3210 H   0  0  0  0  0  0  0  0  0  0  0  0
   -5.2573    3.1421    2.5456 H   0  0  0  0  0  0  0  0  0  0  0  0
   -4.8157    3.8766    4.8935 H   0  0  0  0  0  0  0  0  0  0  0  0
   -5.6474    2.4322    0.2405 H   0  0  0  0  0  0  0  0  0  0  0  0
   -6.6171    1.2533   -4.0869 H   0  0  0  0  0  0  0  0  0  0  0  0
   -5.9762    0.3804   -6.3119 H   0  0  0  0  0  0  0  0  0  0  0  0
   -3.6254   -0.3177   -6.7393 H   0  0  0  0  0  0  0  0  0  0  0  0
   -1.9473   -0.1256   -4.9437 H   0  0  0  0  0  0  0  0  0  0  0  0
   -1.3974    0.4751   -2.5994 H   0  0  0  0  0  0  0  0  0  0  0  0
    0.3567    2.5651   -0.1275 H   0  0  0  0  0  0  0  0  0  0  0  0
    2.7823    2.9150   -0.1766 H   0  0  0  0  0  0  0  0  0  0  0  0
    5.2123    3.2662   -0.1988 H   0  0  0  0  0  0  0  0  0  0  0  0
    7.6398    3.6181   -0.2169 H   0  0  0  0  0  0  0  0  0  0  0  0
   10.0845    3.9712   -0.2334 H   0  0  0  0  0  0  0  0  0  0  0  0
   12.3694    3.0528   -0.1574 H   0  0  0  0  0  0  0  0  0  0  0  0
   12.7251    0.6044    0.0209 H   0  0  0  0  0  0  0  0  0  0  0  0
   10.7961   -0.9243    0.1236 H   0  0  0  0  0  0  0  0  0  0  0  0
    8.3506   -1.2790    0.1393 H   0  0  0  0  0  0  0  0  0  0  0  0
    5.9219   -1.6286    0.1590 H   0  0  0  0  0  0  0  0  0  0  0  0
    3.4950   -1.9788    0.1793 H   0  0  0  0  0  0  0  0  0  0  0  0
    1.0731   -2.3302    0.1907 H   0  0  0  0  0  0  0  0  0  0  0  0
   -0.1805   -1.7764   -2.4105 H   0  0  0  0  0  0  0  0  0  0  0  0
    0.1852   -2.4048   -4.7707 H   0  0  0  0  0  0  0  0  0  0  0  0
   -0.5767   -3.6278   -6.7788 H   0  0  0  0  0  0  0  0  0  0  0  0
   -2.6504   -4.9953   -6.6755 H   0  0  0  0  0  0  0  0  0  0  0  0
   -3.9352   -5.1326   -4.5643 H   0  0  0  0  0  0  0  0  0  0  0  0
   -4.6124   -4.0773   -0.1558 H   0  0  0  0  0  0  0  0  0  0  0  0
   -5.0826   -3.6228    2.1968 H   0  0  0  0  0  0  0  0  0  0  0  0
   -5.5252   -3.1489    4.6090 H   0  0  0  0  0  0  0  0  0  0  0  0
   -4.8591   -2.0081    6.6989 H   0  0  0  0  0  0  0  0  0  0  0  0
   -2.8377   -0.5531    6.7177 H   0  0  0  0  0  0  0  0  0  0  0  0
   -1.4995   -0.2782    4.6548 H   0  0  0  0  0  0  0  0  0  0  0  0
  1  2  4  0
  2  3  4  0
  3  4  4  0
  4  5  4  0
  5  6  4  0
  6  7  4  0
  7  8  4  0
  8  9  4  0
  9 10  4  0
  7 11  4  0
 11 12  4  0
 12 13  4  0
 13 14  4  0
 14 15  4  0
 15 16  4  0
 16 17  4  0
 17 18  4  0
 18 19  4  0
 19 20  4  0
 20 21  4  0
 21 22  4  0
 22 23  1  0
 23 24  4  0
 24 25  4  0
 25 26  4  0
 26 27  4  0
 27 28  4  0
 28 29  4  0
 29 30  4  0
 30 31  4  0
 31 32  4  0
 32 33  4  0
 33 34  4  0
 34 35  4  0
 35 36  4  0
 36 37  4  0
 37 38  4  0
 38 39  4  0
 39 40  4  0
 40 41  4  0
 41 42  4  0
 42 43  4  0
 43 44  4  0
 44 45  1  0
 45 46  4  0
 46 47  4  0
 47 48  4  0
 48 49  4  0
 49 50  4  0
 50 51  4  0
 51 52  4  0
 52 53  4  0
 53 54  4  0
 54 55  4  0
 55 56  4  0
 56 57  4  0
 57 58  4  0
 58 59  4  0
 59 60  4  0
 60 61  4  0
 61 62  4  0
 62 63  4  0
 63 64  4  0
 64 65  4  0
 65 66  4  0
 10  1  4  0
 21 12  4  0
 44 23  4  0
 66 45  4  0
  9  4  4  0
 19 14  4  0
 42 25  4  0
 55 46  4  0
 66 57  4  0
 22  6  4  0
 40 27  4  0
 53 48  4  0
 64 59  4  0
 38 29  4  0
 36 31  4  0
  1 67  1  0
  2 68  1  0
  3 69  1  0
  8 70  1  0
 10 71  1  0
 11 72  1  0
 15 73  1  0
 16 74  1  0
 17 75  1  0
 18 76  1  0
 20 77  1  0
 24 78  1  0
 26 79  1  0
 28 80  1  0
 30 81  1  0
 32 82  1  0
 33 83  1  0
 34 84  1  0
 35 85  1  0
 37 86  1  0
 39 87  1  0
 41 88  1  0
 43 89  1  0
 47 90  1  0
 49 91  1  0
 50 92  1  0
 51 93  1  0
 52 94  1  0
 56 95  1  0
 58 96  1  0
 60 97  1  0
 61 98  1  0
 62 99  1  0
 63100  1  0
M  END
