
     RDKit          3D

 96110  0  0  0  0  0  0  0  0999 V2000
   -7.5884   -3.0957    2.5436 C   0  0  0  0  0  0  0  0  0  0  0  0
   -7.9804   -3.6421    1.3353 C   0  0  0  0  0  0  0  0  0  0  0  0
   -7.0949   -3.6663    0.2567 C   0  0  0  0  0  0  0  0  0  0  0  0
   -5.7743   -3.1298    0.3832 C   0  0  0  0  0  0  0  0  0  0  0  0
   -5.3582   -2.5689    1.6178 C   0  0  0  0  0  0  0  0  0  0  0  0
   -6.3043   -2.5714    2.6776 C   0  0  0  0  0  0  0  0  0  0  0  0
   -4.0326   -2.0352    1.7445 C   0  0  0  0  0  0  0  0  0  0  0  0
   -3.5534   -1.4727    2.9523 C   0  0  0  0  0  0  0  0  0  0  0  0
   -2.2700   -0.9588    3.0809 C   0  0  0  0  0  0  0  0  0  0  0  0
   -1.4143   -0.9849    1.9945 C   0  0  0  0  0  0  0  0  0  0  0  0
   -1.8154   -1.5176    0.7564 C   0  0  0  0  0  0  0  0  0  0  0  0
   -3.1415   -2.0591    0.6333 C   0  0  0  0  0  0  0  0  0  0  0  0
   -3.5694   -2.6242   -0.5990 C   0  0  0  0  0  0  0  0  0  0  0  0
   -2.6425   -2.6299   -1.6650 C   0  0  0  0  0  0  0  0  0  0  0  0
   -1.3610   -2.1007   -1.5475 C   0  0  0  0  0  0  0  0  0  0  0  0
   -0.9307   -1.5269   -0.3518 C   0  0  0  0  0  0  0  0  0  0  0  0
    0.4434   -0.9779   -0.3068 C   0  0  0  0  0  0  0  0  0  0  0  0
    1.4888   -1.8191    0.1246 C   0  0  0  0  0  0  0  0  0  0  0  0
    2.8203   -1.3782    0.1808 C   0  0  0  0  0  0  0  0  0  0  0  0
    3.8543   -2.2233    0.6161 C   0  0  0  0  0  0  0  0  0  0  0  0
    5.1872   -1.7825    0.6695 C   0  0  0  0  0  0  0  0  0  0  0  0
    6.2221   -2.6275    1.1044 C   0  0  0  0  0  0  0  0  0  0  0  0
    7.5553   -2.1873    1.1568 C   0  0  0  0  0  0  0  0  0  0  0  0
    8.5897   -3.0332    1.5914 C   0  0  0  0  0  0  0  0  0  0  0  0
    9.9227   -2.5931    1.6438 C   0  0  0  0  0  0  0  0  0  0  0  0
   10.9576   -3.4380    2.0782 C   0  0  0  0  0  0  0  0  0  0  0  0
   12.2771   -2.9854    2.1245 C   0  0  0  0  0  0  0  0  0  0  0  0
   12.5789   -1.6835    1.7376 C   0  0  0  0  0  0  0  0  0  0  0  0
   11.5616   -0.8321    1.3037 C   0  0  0  0  0  0  0  0  0  0  0  0
   10.2288   -1.2728    1.2515 C   0  0  0  0  0  0  0  0  0  0  0  0
    9.1940   -0.4280    0.8172 C   0  0  0  0  0  0  0  0  0  0  0  0
    7.8609   -0.8693    0.7651 C   0  0  0  0  0  0  0  0  0  0  0  0
    6.8258   -0.0244    0.3306 C   0  0  0  0  0  0  0  0  0  0  0  0
    5.4926   -0.4648    0.2780 C   0  0  0  0  0  0  0  0  0  0  0  0
    4.4574    0.3801   -0.1566 C   0  0  0  0  0  0  0  0  0  0  0  0
    3.1249   -0.0616   -0.2097 C   0  0  0  0  0  0  0  0  0  0  0  0
    2.0895    0.7809   -0.6449 C   0  0  0  0  0  0  0  0  0  0  0  0
    0.7486    0.3483   -0.6965 C   0  0  0  0  0  0  0  0  0  0  0  0
   -0.2831    1.2985   -1.1717 C   0  0  0  0  0  0  0  0  0  0  0  0
   -0.6665    1.2282   -2.5103 C   0  0  0  0  0  0  0  0  0  0  0  0
   -1.6303    2.0909   -3.0239 C   0  0  0  0  0  0  0  0  0  0  0  0
   -2.2638    3.0796   -2.2386 C   0  0  0  0  0  0  0  0  0  0  0  0
   -3.2569    3.9670   -2.7724 C   0  0  0  0  0  0  0  0  0  0  0  0
   -3.6903    3.9327   -4.1250 C   0  0  0  0  0  0  0  0  0  0  0  0
   -4.6546    4.8013   -4.6326 C   0  0  0  0  0  0  0  0  0  0  0  0
   -5.2288    5.7451   -3.8009 C   0  0  0  0  0  0  0  0  0  0  0  0
   -4.8439    5.8263   -2.4617 C   0  0  0  0  0  0  0  0  0  0  0  0
   -3.8538    4.9398   -1.9306 C   0  0  0  0  0  0  0  0  0  0  0  0
   -3.4769    5.0420   -0.5670 C   0  0  0  0  0  0  0  0  0  0  0  0
   -4.1254    6.0413    0.2072 C   0  0  0  0  0  0  0  0  0  0  0  0
   -5.0888    6.8990   -0.3195 C   0  0  0  0  0  0  0  0  0  0  0  0
   -5.4451    6.7906   -1.6513 C   0  0  0  0  0  0  0  0  0  0  0  0
   -2.4806    4.1563   -0.0373 C   0  0  0  0  0  0  0  0  0  0  0  0
   -2.0556    4.2138    1.3119 C   0  0  0  0  0  0  0  0  0  0  0  0
   -1.0870    3.3640    1.8283 C   0  0  0  0  0  0  0  0  0  0  0  0
   -0.5078    2.4137    1.0069 C   0  0  0  0  0  0  0  0  0  0  0  0
   -0.8793    2.2845   -0.3437 C   0  0  0  0  0  0  0  0  0  0  0  0
   -1.8766    3.1742   -0.8741 C   0  0  0  0  0  0  0  0  0  0  0  0
   -4.8923   -3.1640   -0.7270 C   0  0  0  0  0  0  0  0  0  0  0  0
   -5.3872   -3.7443   -1.9258 C   0  0  0  0  0  0  0  0  0  0  0  0
   -6.6747   -4.2649   -2.0380 C   0  0  0  0  0  0  0  0  0  0  0  0
   -7.5248   -4.2248   -0.9480 C   0  0  0  0  0  0  0  0  0  0  0  0
   -8.2770   -3.0741    3.3839 H   0  0  0  0  0  0  0  0  0  0  0  0
   -8.9853   -4.0481    1.2434 H   0  0  0  0  0  0  0  0  0  0  0  0
   -6.0605   -2.1556    3.6505 H   0  0  0  0  0  0  0  0  0  0  0  0
   -4.1771   -1.4205    3.8391 H   0  0  0  0  0  0  0  0  0  0  0  0
   -1.9414   -0.5360    4.0261 H   0  0  0  0  0  0  0  0  0  0  0  0
   -0.4168   -0.5752    2.1319 H   0  0  0  0  0  0  0  0  0  0  0  0
   -2.8944   -3.0511   -2.6331 H   0  0  0  0  0  0  0  0  0  0  0  0
   -0.6962   -2.1348   -2.4084 H   0  0  0  0  0  0  0  0  0  0  0  0
    1.2492   -2.8398    0.4225 H   0  0  0  0  0  0  0  0  0  0  0  0
    3.6175   -3.2423    0.9181 H   0  0  0  0  0  0  0  0  0  0  0  0
    5.9857   -3.6460    1.4076 H   0  0  0  0  0  0  0  0  0  0  0  0
    8.3545   -4.0520    1.8941 H   0  0  0  0  0  0  0  0  0  0  0  0
   10.7418   -4.4590    2.3847 H   0  0  0  0  0  0  0  0  0  0  0  0
   13.0677   -3.6502    2.4627 H   0  0  0  0  0  0  0  0  0  0  0  0
   13.6057   -1.3290    1.7728 H   0  0  0  0  0  0  0  0  0  0  0  0
   11.8173    0.1821    1.0053 H   0  0  0  0  0  0  0  0  0  0  0  0
    9.4313    0.5903    0.5146 H   0  0  0  0  0  0  0  0  0  0  0  0
    7.0625    0.9942    0.0280 H   0  0  0  0  0  0  0  0  0  0  0  0
    4.6928    1.3993   -0.4588 H   0  0  0  0  0  0  0  0  0  0  0  0
    2.3220    1.8009   -0.9512 H   0  0  0  0  0  0  0  0  0  0  0  0
   -0.2180    0.4878   -3.1696 H   0  0  0  0  0  0  0  0  0  0  0  0
   -1.8734    1.9589   -4.0735 H   0  0  0  0  0  0  0  0  0  0  0  0
   -3.2804    3.2149   -4.8291 H   0  0  0  0  0  0  0  0  0  0  0  0
   -4.9534    4.7358   -5.6753 H   0  0  0  0  0  0  0  0  0  0  0  0
   -5.9807    6.4170   -4.2087 H   0  0  0  0  0  0  0  0  0  0  0  0
   -3.8922    6.1781    1.2587 H   0  0  0  0  0  0  0  0  0  0  0  0
   -5.5569    7.6481    0.3133 H   0  0  0  0  0  0  0  0  0  0  0  0
   -6.1983    7.4660   -2.0505 H   0  0  0  0  0  0  0  0  0  0  0  0
   -2.4734    4.9353    2.0068 H   0  0  0  0  0  0  0  0  0  0  0  0
   -0.7876    3.4433    2.8696 H   0  0  0  0  0  0  0  0  0  0  0  0
    0.2461    1.7653    1.4462 H   0  0  0  0  0  0  0  0  0  0  0  0
   -4.7714   -3.8050   -2.8179 H   0  0  0  0  0  0  0  0  0  0  0  0
   -7.0083   -4.6989   -2.9768 H   0  0  0  0  0  0  0  0  0  0  0  0
   -8.5275   -4.6338   -1.0484 H   0  0  0  0  0  0  0  0  0  0  0  0
  1  2  4  0
  2  3  4  0
  3  4  4  0
  4  5  4  0
  5  6  4  0
  5  7  4  0
  7  8  4  0
  8  9  4  0
  9 10  4  0
 10 11  4  0
 11 12  4  0
 12 13  4  0
 13 14  4  0
 14 15  4  0
 15 16  4  0
 16 17  1  0
 17 18  4  0
 18 19  4  0
 19 20  4  0
 20 21  4  0
 21 22  4  0
 22 23  4  0
 23 24  4  0
 24 25  4  0
 25 26  4  0
 26 27  4  0
 27 28  4  0
 28 29  4  0
 29 30  4  0
 30 31  4  0
 31 32  4  0
 32 33  4  0
 33 34  4  0
 34 35  4  0
 35 36  4  0
 36 37  4  0
 37 38  4  0
 38 39  1  0
 39 40  4  0
 40 41  4  0
 41 42  4  0
 42 43  4  0
 43 44  4  0
 44 45  4  0
 45 46  4  0
 46 47  4  0
 47 48  4  0
 48 49  4  0
 49 50  4  0
 50 51  4  0
 51 52  4  0
 49 53  4  0
 53 54  4  0
 54 55  4  0
 55 56  4  0
 56 57  4  0
 57 58  4  0
 13 59  4  0
 59 60  4  0
 60 61  4  0
 61 62  4  0
  6  1  4  0
 12  7  4  0
 38 17  4  0
 57 39  4  0
 62  3  4  0
 59  4  4  0
 16 11  4  0
 36 19  4  0
 58 42  4  0
 34 21  4  0
 48 43  4  0
 58 53  4  0
 32 23  4  0
 52 47  4  0
 30 25  4  0
  1 63  1  0
  2 64  1  0
  6 65  1  0
  8 66  1  0
  9 67  1  0
 10 68  1  0
 14 69  1  0
 15 70  1  0
 18 71  1  0
 20 72  1  0
 22 73  1  0
 24 74  1  0
 26 75  1  0
 27 76  1  0
 28 77  1  0
 29 78  1  0
 31 79  1  0
 33 80  1  0
 35 81  1  0
 37 82  1  0
 40 83  1  0
 41 84  1  0
 44 85  1  0
 45 86  1  0
 46 87  1  0
 50 88  1  0
 51 89  1  0
 52 90  1  0
 54 91  1  0
 55 92  1  0
 56 93  1  0
 60 94  1  0
 61 95  1  0
 62 96  1  0
M  END
