
     RDKit          3D

102116  0  0  0  0  0  0  0  0999 V2000
    1.2895   -7.5655   -5.6888 C   0  0  0  0  0  0  0  0  0  0  0  0
    0.1410   -6.7857   -5.7554 C   0  0  0  0  0  0  0  0  0  0  0  0
    0.0514   -5.6128   -4.9992 C   0  0  0  0  0  0  0  0  0  0  0  0
    1.0849   -5.1942   -4.1708 C   0  0  0  0  0  0  0  0  0  0  0  0
    0.9479   -4.0587   -3.4628 N   0  0  0  0  0  0  0  0  0  0  0  0
    1.9505   -3.6542   -2.6625 C   0  0  0  0  0  0  0  0  0  0  0  0
    1.8128   -2.4804   -1.9318 C   0  0  0  0  0  0  0  0  0  0  0  0
    2.8383   -1.9792   -1.1075 C   0  0  0  0  0  0  0  0  0  0  0  0
    2.7000   -0.7701   -0.4000 C   0  0  0  0  0  0  0  0  0  0  0  0
    3.7477   -0.2195    0.3799 C   0  0  0  0  0  0  0  0  0  0  0  0
    4.9522   -0.9604    0.4653 C   0  0  0  0  0  0  0  0  0  0  0  0
    5.0762   -2.1860   -0.2087 C   0  0  0  0  0  0  0  0  0  0  0  0
    4.0407   -2.6957   -1.0049 C   0  0  0  0  0  0  0  0  0  0  0  0
    4.1835   -3.8964   -1.7149 C   0  0  0  0  0  0  0  0  0  0  0  0
    3.1523   -4.3721   -2.5431 C   0  0  0  0  0  0  0  0  0  0  0  0
    3.2850   -5.5554   -3.2789 C   0  0  0  0  0  0  0  0  0  0  0  0
    2.2458   -5.9870   -4.1095 C   0  0  0  0  0  0  0  0  0  0  0  0
    2.3425   -7.1682   -4.8677 C   0  0  0  0  0  0  0  0  0  0  0  0
    6.0326   -0.4642    1.2086 C   0  0  0  0  0  0  0  0  0  0  0  0
    5.9536    0.7675    1.8474 C   0  0  0  0  0  0  0  0  0  0  0  0
    4.7846    1.5139    1.7594 C   0  0  0  0  0  0  0  0  0  0  0  0
    3.6623    1.0353    1.0565 C   0  0  0  0  0  0  0  0  0  0  0  0
    2.4529    1.8880    1.0036 C   0  0  0  0  0  0  0  0  0  0  0  0
    2.2041    2.6220   -0.1751 C   0  0  0  0  0  0  0  0  0  0  0  0
    1.0734    3.4413   -0.3172 C   0  0  0  0  0  0  0  0  0  0  0  0
    0.8299    4.1568   -1.5010 C   0  0  0  0  0  0  0  0  0  0  0  0
   -0.3040    4.9740   -1.6425 C   0  0  0  0  0  0  0  0  0  0  0  0
   -0.5482    5.6905   -2.8260 C   0  0  0  0  0  0  0  0  0  0  0  0
   -1.6823    6.5075   -2.9678 C   0  0  0  0  0  0  0  0  0  0  0  0
   -1.9253    7.2241   -4.1517 C   0  0  0  0  0  0  0  0  0  0  0  0
   -3.0589    8.0412   -4.2936 C   0  0  0  0  0  0  0  0  0  0  0  0
   -3.3024    8.7582   -5.4767 C   0  0  0  0  0  0  0  0  0  0  0  0
   -4.4336    9.5661   -5.6021 C   0  0  0  0  0  0  0  0  0  0  0  0
   -5.3351    9.6674   -4.5471 C   0  0  0  0  0  0  0  0  0  0  0  0
   -5.1070    8.9610   -3.3653 C   0  0  0  0  0  0  0  0  0  0  0  0
   -3.9733    8.1439   -3.2238 C   0  0  0  0  0  0  0  0  0  0  0  0
   -3.7296    7.4268   -2.0409 C   0  0  0  0  0  0  0  0  0  0  0  0
   -2.5950    6.6100   -1.8999 C   0  0  0  0  0  0  0  0  0  0  0  0
   -2.3507    5.8931   -0.7165 C   0  0  0  0  0  0  0  0  0  0  0  0
   -1.2160    5.0769   -0.5746 C   0  0  0  0  0  0  0  0  0  0  0  0
   -0.9707    4.3614    0.6092 C   0  0  0  0  0  0  0  0  0  0  0  0
    0.1641    3.5457    0.7497 C   0  0  0  0  0  0  0  0  0  0  0  0
    0.4126    2.8327    1.9327 C   0  0  0  0  0  0  0  0  0  0  0  0
    1.5428    2.0025    2.0818 C   0  0  0  0  0  0  0  0  0  0  0  0
    1.7290    1.3020    3.3723 C   0  0  0  0  0  0  0  0  0  0  0  0
    2.5997    1.8771    4.3182 C   0  0  0  0  0  0  0  0  0  0  0  0
    2.8224    1.2784    5.5526 C   0  0  0  0  0  0  0  0  0  0  0  0
    2.1565    0.1024    5.8759 C   0  0  0  0  0  0  0  0  0  0  0  0
    1.2505   -0.4813    4.9789 C   0  0  0  0  0  0  0  0  0  0  0  0
    0.5558   -1.6440    5.3489 C   0  0  0  0  0  0  0  0  0  0  0  0
   -0.3930   -2.2330    4.5014 C   0  0  0  0  0  0  0  0  0  0  0  0
   -1.1157   -3.3712    4.8864 C   0  0  0  0  0  0  0  0  0  0  0  0
   -2.0891   -3.9277    4.0390 C   0  0  0  0  0  0  0  0  0  0  0  0
   -2.8354   -5.0520    4.4103 C   0  0  0  0  0  0  0  0  0  0  0  0
   -3.8050   -5.5681    3.5445 C   0  0  0  0  0  0  0  0  0  0  0  0
   -4.5770   -6.6951    3.8800 C   0  0  0  0  0  0  0  0  0  0  0  0
   -5.5359   -7.1798    2.9932 C   0  0  0  0  0  0  0  0  0  0  0  0
   -5.7260   -6.5422    1.7728 C   0  0  0  0  0  0  0  0  0  0  0  0
   -4.9553   -5.4225    1.4453 C   0  0  0  0  0  0  0  0  0  0  0  0
   -3.9928   -4.9187    2.3101 C   0  0  0  0  0  0  0  0  0  0  0  0
   -3.2792   -3.8393    1.9460 N   0  0  0  0  0  0  0  0  0  0  0  0
   -2.3458   -3.3540    2.7824 C   0  0  0  0  0  0  0  0  0  0  0  0
   -1.6077   -2.2402    2.4051 C   0  0  0  0  0  0  0  0  0  0  0  0
   -0.6361   -1.6621    3.2420 C   0  0  0  0  0  0  0  0  0  0  0  0
    0.0855   -0.5177    2.8570 C   0  0  0  0  0  0  0  0  0  0  0  0
    1.0245    0.1095    3.7110 C   0  0  0  0  0  0  0  0  0  0  0  0
    1.3658   -8.4782   -6.2739 H   0  0  0  0  0  0  0  0  0  0  0  0
   -0.6877   -7.0831   -6.3924 H   0  0  0  0  0  0  0  0  0  0  0  0
   -0.8500   -5.0074   -5.0583 H   0  0  0  0  0  0  0  0  0  0  0  0
    0.8774   -1.9319   -2.0261 H   0  0  0  0  0  0  0  0  0  0  0  0
    1.7556   -0.2341   -0.4806 H   0  0  0  0  0  0  0  0  0  0  0  0
    6.0080   -2.7439   -0.1307 H   0  0  0  0  0  0  0  0  0  0  0  0
    5.1118   -4.4591   -1.6371 H   0  0  0  0  0  0  0  0  0  0  0  0
    4.2001   -6.1384   -3.2093 H   0  0  0  0  0  0  0  0  0  0  0  0
    3.2389   -7.7822   -4.8214 H   0  0  0  0  0  0  0  0  0  0  0  0
    6.9587   -1.0307    1.2829 H   0  0  0  0  0  0  0  0  0  0  0  0
    6.8030    1.1485    2.4073 H   0  0  0  0  0  0  0  0  0  0  0  0
    4.7479    2.4868    2.2451 H   0  0  0  0  0  0  0  0  0  0  0  0
    2.9119    2.5421   -1.0003 H   0  0  0  0  0  0  0  0  0  0  0  0
    1.5351    4.0774   -2.3264 H   0  0  0  0  0  0  0  0  0  0  0  0
    0.1571    5.6113   -3.6515 H   0  0  0  0  0  0  0  0  0  0  0  0
   -1.2203    7.1449   -4.9773 H   0  0  0  0  0  0  0  0  0  0  0  0
   -2.6095    8.6919   -6.3125 H   0  0  0  0  0  0  0  0  0  0  0  0
   -4.6093   10.1153   -6.5233 H   0  0  0  0  0  0  0  0  0  0  0  0
   -6.2166   10.2959   -4.6426 H   0  0  0  0  0  0  0  0  0  0  0  0
   -5.8235    9.0531   -2.5521 H   0  0  0  0  0  0  0  0  0  0  0  0
   -4.4354    7.5064   -1.2161 H   0  0  0  0  0  0  0  0  0  0  0  0
   -3.0566    5.9707    0.1086 H   0  0  0  0  0  0  0  0  0  0  0  0
   -1.6752    4.4402    1.4356 H   0  0  0  0  0  0  0  0  0  0  0  0
   -0.2875    2.9164    2.7638 H   0  0  0  0  0  0  0  0  0  0  0  0
    3.1132    2.8078    4.0864 H   0  0  0  0  0  0  0  0  0  0  0  0
    3.5092    1.7305    6.2624 H   0  0  0  0  0  0  0  0  0  0  0  0
    2.3405   -0.3506    6.8478 H   0  0  0  0  0  0  0  0  0  0  0  0
    0.7445   -2.0887    6.3246 H   0  0  0  0  0  0  0  0  0  0  0  0
   -0.9302   -3.8224    5.8590 H   0  0  0  0  0  0  0  0  0  0  0  0
   -2.6645   -5.5238    5.3750 H   0  0  0  0  0  0  0  0  0  0  0  0
   -4.4345   -7.1992    4.8330 H   0  0  0  0  0  0  0  0  0  0  0  0
   -6.1317   -8.0507    3.2538 H   0  0  0  0  0  0  0  0  0  0  0  0
   -6.4711   -6.9102    1.0722 H   0  0  0  0  0  0  0  0  0  0  0  0
   -5.1103   -4.9285    0.4890 H   0  0  0  0  0  0  0  0  0  0  0  0
   -1.8109   -1.8038    1.4291 H   0  0  0  0  0  0  0  0  0  0  0  0
   -0.1070   -0.0953    1.8719 H   0  0  0  0  0  0  0  0  0  0  0  0
  1  2  4  0
  2  3  4  0
  3  4  4  0
  4  5  4  0
  5  6  4  0
  6  7  4  0
  7  8  4  0
  8  9  4  0
  9 10  4  0
 10 11  4  0
 11 12  4  0
 12 13  4  0
 13 14  4  0
 14 15  4  0
 15 16  4  0
 16 17  4  0
 17 18  4  0
 11 19  4  0
 19 20  4  0
 20 21  4  0
 21 22  4  0
 22 23  1  0
 23 24  4  0
 24 25  4  0
 25 26  4  0
 26 27  4  0
 27 28  4  0
 28 29  4  0
 29 30  4  0
 30 31  4  0
 31 32  4  0
 32 33  4  0
 33 34  4  0
 34 35  4  0
 35 36  4  0
 36 37  4  0
 37 38  4  0
 38 39  4  0
 39 40  4  0
 40 41  4  0
 41 42  4  0
 42 43  4  0
 43 44  4  0
 44 45  1  0
 45 46  4  0
 46 47  4  0
 47 48  4  0
 48 49  4  0
 49 50  4  0
 50 51  4  0
 51 52  4  0
 52 53  4  0
 53 54  4  0
 54 55  4  0
 55 56  4  0
 56 57  4  0
 57 58  4  0
 58 59  4  0
 59 60  4  0
 60 61  4  0
 61 62  4  0
 62 63  4  0
 63 64  4  0
 64 65  4  0
 65 66  4  0
 18  1  4  0
 44 23  4  0
 66 45  4  0
 17  4  4  0
 42 25  4  0
 66 49  4  0
 15  6  4  0
 40 27  4  0
 64 51  4  0
 13  8  4  0
 38 29  4  0
 62 53  4  0
 22 10  4  0
 36 31  4  0
 60 55  4  0
  1 67  1  0
  2 68  1  0
  3 69  1  0
  7 70  1  0
  9 71  1  0
 12 72  1  0
 14 73  1  0
 16 74  1  0
 18 75  1  0
 19 76  1  0
 20 77  1  0
 21 78  1  0
 24 79  1  0
 26 80  1  0
 28 81  1  0
 30 82  1  0
 32 83  1  0
 33 84  1  0
 34 85  1  0
 35 86  1  0
 37 87  1  0
 39 88  1  0
 41 89  1  0
 43 90  1  0
 46 91  1  0
 47 92  1  0
 48 93  1  0
 50 94  1  0
 52 95  1  0
 54 96  1  0
 56 97  1  0
 57 98  1  0
 58 99  1  0
 59100  1  0
 63101  1  0
 65102  1  0
M  END
