
     RDKit          3D

102116  0  0  0  0  0  0  0  0999 V2000
   -8.9867   -8.9712   -2.8076 C   0  0  0  0  0  0  0  0  0  0  0  0
   -8.4105   -9.7421   -1.8048 C   0  0  0  0  0  0  0  0  0  0  0  0
   -7.3933   -9.2035   -1.0108 C   0  0  0  0  0  0  0  0  0  0  0  0
   -6.9324   -7.9061   -1.1925 C   0  0  0  0  0  0  0  0  0  0  0  0
   -5.9517   -7.4365   -0.4015 N   0  0  0  0  0  0  0  0  0  0  0  0
   -5.5079   -6.1804   -0.5801 C   0  0  0  0  0  0  0  0  0  0  0  0
   -4.4956   -5.6975    0.2368 C   0  0  0  0  0  0  0  0  0  0  0  0
   -3.9831   -4.3948    0.1086 C   0  0  0  0  0  0  0  0  0  0  0  0
   -2.9584   -3.9246    0.9463 C   0  0  0  0  0  0  0  0  0  0  0  0
   -2.4490   -2.6225    0.8174 C   0  0  0  0  0  0  0  0  0  0  0  0
   -1.4272   -2.1513    1.6541 C   0  0  0  0  0  0  0  0  0  0  0  0
   -0.9305   -0.8530    1.5132 C   0  0  0  0  0  0  0  0  0  0  0  0
   -1.4360    0.0053    0.5291 C   0  0  0  0  0  0  0  0  0  0  0  0
   -0.9147    1.3750    0.3698 C   0  0  0  0  0  0  0  0  0  0  0  0
   -1.7590    2.4551    0.6984 C   0  0  0  0  0  0  0  0  0  0  0  0
   -1.3411    3.7903    0.5804 C   0  0  0  0  0  0  0  0  0  0  0  0
   -2.1925    4.8581    0.9108 C   0  0  0  0  0  0  0  0  0  0  0  0
   -1.7742    6.1939    0.7897 C   0  0  0  0  0  0  0  0  0  0  0  0
   -2.6256    7.2622    1.1189 C   0  0  0  0  0  0  0  0  0  0  0  0
   -2.2075    8.5980    0.9968 C   0  0  0  0  0  0  0  0  0  0  0  0
   -3.0597    9.6658    1.3258 C   0  0  0  0  0  0  0  0  0  0  0  0
   -2.6418   11.0014    1.2038 C   0  0  0  0  0  0  0  0  0  0  0  0
   -3.4933   12.0693    1.5326 C   0  0  0  0  0  0  0  0  0  0  0  0
   -3.0630   13.3909    1.4059 C   0  0  0  0  0  0  0  0  0  0  0  0
   -1.7770   13.6618    0.9492 C   0  0  0  0  0  0  0  0  0  0  0  0
   -0.9192   12.6117    0.6185 C   0  0  0  0  0  0  0  0  0  0  0  0
   -1.3376   11.2762    0.7406 C   0  0  0  0  0  0  0  0  0  0  0  0
   -0.4865   10.2080    0.4119 C   0  0  0  0  0  0  0  0  0  0  0  0
   -0.9057    8.8723    0.5343 C   0  0  0  0  0  0  0  0  0  0  0  0
   -0.0545    7.8038    0.2055 C   0  0  0  0  0  0  0  0  0  0  0  0
   -0.4728    6.4678    0.3276 C   0  0  0  0  0  0  0  0  0  0  0  0
    0.3783    5.3989   -0.0010 C   0  0  0  0  0  0  0  0  0  0  0  0
   -0.0409    4.0631    0.1210 C   0  0  0  0  0  0  0  0  0  0  0  0
    0.8072    2.9925   -0.2067 C   0  0  0  0  0  0  0  0  0  0  0  0
    0.3947    1.6486   -0.0925 C   0  0  0  0  0  0  0  0  0  0  0  0
    1.3445    0.5858   -0.4711 C   0  0  0  0  0  0  0  0  0  0  0  0
    2.5092    0.3647    0.2832 C   0  0  0  0  0  0  0  0  0  0  0  0
    3.4232   -0.6495   -0.0539 C   0  0  0  0  0  0  0  0  0  0  0  0
    4.5837   -0.8734    0.7055 C   0  0  0  0  0  0  0  0  0  0  0  0
    5.4929   -1.8906    0.3690 C   0  0  0  0  0  0  0  0  0  0  0  0
    6.6533   -2.1198    1.1221 C   0  0  0  0  0  0  0  0  0  0  0  0
    7.5518   -3.1434    0.7713 C   0  0  0  0  0  0  0  0  0  0  0  0
    8.7158   -3.3888    1.5083 C   0  0  0  0  0  0  0  0  0  0  0  0
    9.5852   -4.4167    1.1280 C   0  0  0  0  0  0  0  0  0  0  0  0
   10.7647   -4.6948    1.8425 C   0  0  0  0  0  0  0  0  0  0  0  0
   11.6075   -5.7265    1.4350 C   0  0  0  0  0  0  0  0  0  0  0  0
   11.2758   -6.4812    0.3159 C   0  0  0  0  0  0  0  0  0  0  0  0
   10.1021   -6.1998   -0.3901 C   0  0  0  0  0  0  0  0  0  0  0  0
    9.2441   -5.1775   -0.0060 C   0  0  0  0  0  0  0  0  0  0  0  0
    8.1279   -4.9484   -0.7201 N   0  0  0  0  0  0  0  0  0  0  0  0
    7.2993   -3.9580   -0.3456 C   0  0  0  0  0  0  0  0  0  0  0  0
    6.1478   -3.7215   -1.0834 C   0  0  0  0  0  0  0  0  0  0  0  0
    5.2369   -2.7031   -0.7510 C   0  0  0  0  0  0  0  0  0  0  0  0
    4.0775   -2.4790   -1.5117 C   0  0  0  0  0  0  0  0  0  0  0  0
    3.1684   -1.4623   -1.1771 C   0  0  0  0  0  0  0  0  0  0  0  0
    2.0113   -1.2387   -1.9365 C   0  0  0  0  0  0  0  0  0  0  0  0
    1.1139   -0.2260   -1.5889 C   0  0  0  0  0  0  0  0  0  0  0  0
   -2.4632   -0.4678   -0.3047 C   0  0  0  0  0  0  0  0  0  0  0  0
   -2.9753   -1.7701   -0.1744 C   0  0  0  0  0  0  0  0  0  0  0  0
   -3.9991   -2.2414   -1.0124 C   0  0  0  0  0  0  0  0  0  0  0  0
   -4.5088   -3.5437   -0.8812 C   0  0  0  0  0  0  0  0  0  0  0  0
   -5.5313   -4.0208   -1.7135 C   0  0  0  0  0  0  0  0  0  0  0  0
   -6.0300   -5.3276   -1.5675 C   0  0  0  0  0  0  0  0  0  0  0  0
   -7.0502   -5.8245   -2.3863 C   0  0  0  0  0  0  0  0  0  0  0  0
   -7.5198   -7.1303   -2.2095 C   0  0  0  0  0  0  0  0  0  0  0  0
   -8.5435   -7.6663   -3.0116 C   0  0  0  0  0  0  0  0  0  0  0  0
   -9.7778   -9.3838   -3.4283 H   0  0  0  0  0  0  0  0  0  0  0  0
   -8.7471  -10.7615   -1.6352 H   0  0  0  0  0  0  0  0  0  0  0  0
   -6.9470   -9.8124   -0.2281 H   0  0  0  0  0  0  0  0  0  0  0  0
   -4.0963   -6.3650    0.9980 H   0  0  0  0  0  0  0  0  0  0  0  0
   -2.5494   -4.5835    1.7107 H   0  0  0  0  0  0  0  0  0  0  0  0
   -1.0048   -2.7928    2.4243 H   0  0  0  0  0  0  0  0  0  0  0  0
   -0.1388   -0.5152    2.1785 H   0  0  0  0  0  0  0  0  0  0  0  0
   -2.7639    2.2418    1.0626 H   0  0  0  0  0  0  0  0  0  0  0  0
   -3.1988    4.6454    1.2678 H   0  0  0  0  0  0  0  0  0  0  0  0
   -3.6318    7.0505    1.4766 H   0  0  0  0  0  0  0  0  0  0  0  0
   -4.0660    9.4548    1.6832 H   0  0  0  0  0  0  0  0  0  0  0  0
   -4.5021   11.8779    1.8914 H   0  0  0  0  0  0  0  0  0  0  0  0
   -3.7326   14.2072    1.6639 H   0  0  0  0  0  0  0  0  0  0  0  0
   -1.4398   14.6902    0.8497 H   0  0  0  0  0  0  0  0  0  0  0  0
    0.0822   12.8440    0.2632 H   0  0  0  0  0  0  0  0  0  0  0  0
    0.5195   10.4206    0.0547 H   0  0  0  0  0  0  0  0  0  0  0  0
    0.9519    8.0158   -0.1516 H   0  0  0  0  0  0  0  0  0  0  0  0
    1.3848    5.6105   -0.3583 H   0  0  0  0  0  0  0  0  0  0  0  0
    1.8127    3.2020   -0.5716 H   0  0  0  0  0  0  0  0  0  0  0  0
    2.6987    0.9891    1.1551 H   0  0  0  0  0  0  0  0  0  0  0  0
    4.7814   -0.2460    1.5728 H   0  0  0  0  0  0  0  0  0  0  0  0
    6.8623   -1.4974    1.9900 H   0  0  0  0  0  0  0  0  0  0  0  0
    8.9459   -2.7795    2.3790 H   0  0  0  0  0  0  0  0  0  0  0  0
   11.0308   -4.1087    2.7191 H   0  0  0  0  0  0  0  0  0  0  0  0
   12.5183   -5.9399    1.9883 H   0  0  0  0  0  0  0  0  0  0  0  0
   11.9249   -7.2889   -0.0125 H   0  0  0  0  0  0  0  0  0  0  0  0
    9.8489   -6.7944   -1.2648 H   0  0  0  0  0  0  0  0  0  0  0  0
    5.9592   -4.3569   -1.9466 H   0  0  0  0  0  0  0  0  0  0  0  0
    3.8787   -3.1073   -2.3785 H   0  0  0  0  0  0  0  0  0  0  0  0
    1.7940   -1.8547   -2.8063 H   0  0  0  0  0  0  0  0  0  0  0  0
    0.2235   -0.0791   -2.1967 H   0  0  0  0  0  0  0  0  0  0  0  0
   -2.8610    0.1909   -1.0752 H   0  0  0  0  0  0  0  0  0  0  0  0
   -4.4041   -1.5834   -1.7792 H   0  0  0  0  0  0  0  0  0  0  0  0
   -5.9450   -3.3720   -2.4830 H   0  0  0  0  0  0  0  0  0  0  0  0
   -7.4796   -5.1949   -3.1618 H   0  0  0  0  0  0  0  0  0  0  0  0
   -8.9989   -7.0690   -3.7980 H   0  0  0  0  0  0  0  0  0  0  0  0
  1  2  4  0
  2  3  4  0
  3  4  4  0
  4  5  4  0
  5  6  4  0
  6  7  4  0
  7  8  4  0
  8  9  4  0
  9 10  4  0
 10 11  4  0
 11 12  4  0
 12 13  4  0
 13 14  1  0
 14 15  4  0
 15 16  4  0
 16 17  4  0
 17 18  4  0
 18 19  4  0
 19 20  4  0
 20 21  4  0
 21 22  4  0
 22 23  4  0
 23 24  4  0
 24 25  4  0
 25 26  4  0
 26 27  4  0
 27 28  4  0
 28 29  4  0
 29 30  4  0
 30 31  4  0
 31 32  4  0
 32 33  4  0
 33 34  4  0
 34 35  4  0
 35 36  1  0
 36 37  4  0
 37 38  4  0
 38 39  4  0
 39 40  4  0
 40 41  4  0
 41 42  4  0
 42 43  4  0
 43 44  4  0
 44 45  4  0
 45 46  4  0
 46 47  4  0
 47 48  4  0
 48 49  4  0
 49 50  4  0
 50 51  4  0
 51 52  4  0
 52 53  4  0
 53 54  4  0
 54 55  4  0
 55 56  4  0
 56 57  4  0
 13 58  4  0
 58 59  4  0
 59 60  4  0
 60 61  4  0
 61 62  4  0
 62 63  4  0
 63 64  4  0
 64 65  4  0
 65 66  4  0
 66  1  4  0
 65  4  4  0
 63  6  4  0
 61  8  4  0
 59 10  4  0
 35 14  4  0
 57 36  4  0
 33 16  4  0
 55 38  4  0
 31 18  4  0
 53 40  4  0
 29 20  4  0
 51 42  4  0
 27 22  4  0
 49 44  4  0
  1 67  1  0
  2 68  1  0
  3 69  1  0
  7 70  1  0
  9 71  1  0
 11 72  1  0
 12 73  1  0
 15 74  1  0
 17 75  1  0
 19 76  1  0
 21 77  1  0
 23 78  1  0
 24 79  1  0
 25 80  1  0
 26 81  1  0
 28 82  1  0
 30 83  1  0
 32 84  1  0
 34 85  1  0
 37 86  1  0
 39 87  1  0
 41 88  1  0
 43 89  1  0
 45 90  1  0
 46 91  1  0
 47 92  1  0
 48 93  1  0
 52 94  1  0
 54 95  1  0
 56 96  1  0
 57 97  1  0
 58 98  1  0
 60 99  1  0
 62100  1  0
 64101  1  0
 66102  1  0
M  END
