
     RDKit          3D

102116  0  0  0  0  0  0  0  0999 V2000
   -6.6401   -9.2630   -3.6023 C   0  0  0  0  0  0  0  0  0  0  0  0
   -5.6291   -8.3010   -3.6279 C   0  0  0  0  0  0  0  0  0  0  0  0
   -5.6963   -7.1658   -2.8033 C   0  0  0  0  0  0  0  0  0  0  0  0
   -4.6873   -6.1887   -2.8171 C   0  0  0  0  0  0  0  0  0  0  0  0
   -4.7564   -5.0542   -1.9907 C   0  0  0  0  0  0  0  0  0  0  0  0
   -3.7526   -4.0746   -1.9992 C   0  0  0  0  0  0  0  0  0  0  0  0
   -3.8399   -2.9430   -1.1685 C   0  0  0  0  0  0  0  0  0  0  0  0
   -2.8544   -1.9490   -1.1676 C   0  0  0  0  0  0  0  0  0  0  0  0
   -2.9804   -0.8336   -0.3326 C   0  0  0  0  0  0  0  0  0  0  0  0
   -2.0193    0.1959   -0.3141 C   0  0  0  0  0  0  0  0  0  0  0  0
   -2.1628    1.3069    0.5290 C   0  0  0  0  0  0  0  0  0  0  0  0
   -1.1705    2.3973    0.5358 C   0  0  0  0  0  0  0  0  0  0  0  0
   -1.5615    3.6616    0.0474 C   0  0  0  0  0  0  0  0  0  0  0  0
   -0.6769    4.7513    0.0034 C   0  0  0  0  0  0  0  0  0  0  0  0
   -1.0779    6.0044   -0.4893 C   0  0  0  0  0  0  0  0  0  0  0  0
   -0.1907    7.0930   -0.5330 C   0  0  0  0  0  0  0  0  0  0  0  0
   -0.5909    8.3461   -1.0265 C   0  0  0  0  0  0  0  0  0  0  0  0
    0.2965    9.4347   -1.0708 C   0  0  0  0  0  0  0  0  0  0  0  0
   -0.1045   10.6877   -1.5648 C   0  0  0  0  0  0  0  0  0  0  0  0
    0.7827   11.7760   -1.6095 C   0  0  0  0  0  0  0  0  0  0  0  0
    0.3825   13.0289   -2.1033 C   0  0  0  0  0  0  0  0  0  0  0  0
    1.2762   14.1003   -2.1411 C   0  0  0  0  0  0  0  0  0  0  0  0
    2.5804   13.9332   -1.6861 C   0  0  0  0  0  0  0  0  0  0  0  0
    2.9929   12.6945   -1.1926 C   0  0  0  0  0  0  0  0  0  0  0  0
    2.1053   11.6066   -1.1480 C   0  0  0  0  0  0  0  0  0  0  0  0
    2.5050   10.3537   -0.6543 C   0  0  0  0  0  0  0  0  0  0  0  0
    1.6166    9.2658   -0.6099 C   0  0  0  0  0  0  0  0  0  0  0  0
    2.0164    8.0125   -0.1158 C   0  0  0  0  0  0  0  0  0  0  0  0
    1.1290    6.9241   -0.0720 C   0  0  0  0  0  0  0  0  0  0  0  0
    1.5287    5.6705    0.4209 C   0  0  0  0  0  0  0  0  0  0  0  0
    0.6407    4.5822    0.4621 C   0  0  0  0  0  0  0  0  0  0  0  0
    1.0379    3.3275    0.9515 C   0  0  0  0  0  0  0  0  0  0  0  0
    0.1561    2.2274    0.9974 C   0  0  0  0  0  0  0  0  0  0  0  0
    0.6591    0.9507    1.5342 C   0  0  0  0  0  0  0  0  0  0  0  0
    0.1946    0.4397    2.7505 C   0  0  0  0  0  0  0  0  0  0  0  0
    0.6905   -0.7692    3.2529 C   0  0  0  0  0  0  0  0  0  0  0  0
    1.6542   -1.5012    2.5756 C   0  0  0  0  0  0  0  0  0  0  0  0
    2.1009   -2.6535    3.1040 N   0  0  0  0  0  0  0  0  0  0  0  0
    3.0305   -3.3641    2.4427 C   0  0  0  0  0  0  0  0  0  0  0  0
    3.4872   -4.5563    2.9867 C   0  0  0  0  0  0  0  0  0  0  0  0
    4.4549   -5.3522    2.3485 C   0  0  0  0  0  0  0  0  0  0  0  0
    4.9025   -6.5573    2.9149 C   0  0  0  0  0  0  0  0  0  0  0  0
    5.8692   -7.3513    2.2763 C   0  0  0  0  0  0  0  0  0  0  0  0
    6.3173   -8.5562    2.8421 C   0  0  0  0  0  0  0  0  0  0  0  0
    7.2786   -9.3342    2.1955 C   0  0  0  0  0  0  0  0  0  0  0  0
    7.8039   -8.9182    0.9762 C   0  0  0  0  0  0  0  0  0  0  0  0
    7.3688   -7.7234    0.4011 C   0  0  0  0  0  0  0  0  0  0  0  0
    6.4019   -6.9292    1.0394 C   0  0  0  0  0  0  0  0  0  0  0  0
    5.9533   -5.7242    0.4740 C   0  0  0  0  0  0  0  0  0  0  0  0
    4.9859   -4.9318    1.1149 C   0  0  0  0  0  0  0  0  0  0  0  0
    4.5329   -3.7282    0.5561 C   0  0  0  0  0  0  0  0  0  0  0  0
    3.5634   -2.9479    1.2110 C   0  0  0  0  0  0  0  0  0  0  0  0
    3.0967   -1.7440    0.6717 C   0  0  0  0  0  0  0  0  0  0  0  0
    2.1283   -0.9978    1.3516 C   0  0  0  0  0  0  0  0  0  0  0  0
    1.6344    0.2180    0.8423 C   0  0  0  0  0  0  0  0  0  0  0  0
   -3.2924    1.3618    1.3535 C   0  0  0  0  0  0  0  0  0  0  0  0
   -4.2444    0.3358    1.3308 C   0  0  0  0  0  0  0  0  0  0  0  0
   -4.1131   -0.7640    0.4968 C   0  0  0  0  0  0  0  0  0  0  0  0
   -5.0645   -1.7136    0.5045 N   0  0  0  0  0  0  0  0  0  0  0  0
   -4.9384   -2.7776   -0.3081 C   0  0  0  0  0  0  0  0  0  0  0  0
   -5.9255   -3.7539   -0.3076 C   0  0  0  0  0  0  0  0  0  0  0  0
   -5.8593   -4.8914   -1.1319 C   0  0  0  0  0  0  0  0  0  0  0  0
   -6.8694   -5.8680   -1.1173 C   0  0  0  0  0  0  0  0  0  0  0  0
   -6.8021   -7.0032   -1.9418 C   0  0  0  0  0  0  0  0  0  0  0  0
   -7.8115   -7.9800   -1.9276 C   0  0  0  0  0  0  0  0  0  0  0  0
   -7.7304   -9.1026   -2.7529 C   0  0  0  0  0  0  0  0  0  0  0  0
   -6.5752  -10.1365   -4.2457 H   0  0  0  0  0  0  0  0  0  0  0  0
   -4.7851   -8.4448   -4.2988 H   0  0  0  0  0  0  0  0  0  0  0  0
   -3.8346   -6.3141   -3.4820 H   0  0  0  0  0  0  0  0  0  0  0  0
   -2.8945   -4.1904   -2.6585 H   0  0  0  0  0  0  0  0  0  0  0  0
   -1.9892   -2.0422   -1.8196 H   0  0  0  0  0  0  0  0  0  0  0  0
   -1.1518    0.1330   -0.9685 H   0  0  0  0  0  0  0  0  0  0  0  0
   -2.5809    3.7912   -0.3166 H   0  0  0  0  0  0  0  0  0  0  0  0
   -2.0986    6.1348   -0.8451 H   0  0  0  0  0  0  0  0  0  0  0  0
   -1.6109    8.4779   -1.3832 H   0  0  0  0  0  0  0  0  0  0  0  0
   -1.1246   10.8193   -1.9211 H   0  0  0  0  0  0  0  0  0  0  0  0
   -0.6327   13.1793   -2.4635 H   0  0  0  0  0  0  0  0  0  0  0  0
    0.9529   15.0640   -2.5257 H   0  0  0  0  0  0  0  0  0  0  0  0
    3.2780   14.7661   -1.7146 H   0  0  0  0  0  0  0  0  0  0  0  0
    4.0166   12.5841   -0.8417 H   0  0  0  0  0  0  0  0  0  0  0  0
    3.5256   10.2240   -0.2988 H   0  0  0  0  0  0  0  0  0  0  0  0
    3.0372    7.8838    0.2402 H   0  0  0  0  0  0  0  0  0  0  0  0
    2.5487    5.5395    0.7784 H   0  0  0  0  0  0  0  0  0  0  0  0
    2.0566    3.1993    1.3175 H   0  0  0  0  0  0  0  0  0  0  0  0
   -0.5588    0.9780    3.3221 H   0  0  0  0  0  0  0  0  0  0  0  0
    0.3125   -1.1482    4.1996 H   0  0  0  0  0  0  0  0  0  0  0  0
    3.0697   -4.8710    3.9414 H   0  0  0  0  0  0  0  0  0  0  0  0
    4.4917   -6.8833    3.8691 H   0  0  0  0  0  0  0  0  0  0  0  0
    5.9188   -8.8985    3.7947 H   0  0  0  0  0  0  0  0  0  0  0  0
    7.6158  -10.2643    2.6453 H   0  0  0  0  0  0  0  0  0  0  0  0
    8.5525   -9.5228    0.4712 H   0  0  0  0  0  0  0  0  0  0  0  0
    7.7917   -7.4157   -0.5527 H   0  0  0  0  0  0  0  0  0  0  0  0
    6.3647   -5.3993   -0.4800 H   0  0  0  0  0  0  0  0  0  0  0  0
    4.9363   -3.3932   -0.3974 H   0  0  0  0  0  0  0  0  0  0  0  0
    3.4876   -1.3879   -0.2784 H   0  0  0  0  0  0  0  0  0  0  0  0
    2.0094    0.5969   -0.1071 H   0  0  0  0  0  0  0  0  0  0  0  0
   -3.4416    2.2039    2.0266 H   0  0  0  0  0  0  0  0  0  0  0  0
   -5.1137    0.3984    1.9811 H   0  0  0  0  0  0  0  0  0  0  0  0
   -6.7744   -3.6170    0.3598 H   0  0  0  0  0  0  0  0  0  0  0  0
   -7.7227   -5.7423   -0.4529 H   0  0  0  0  0  0  0  0  0  0  0  0
   -8.6716   -7.8722   -1.2704 H   0  0  0  0  0  0  0  0  0  0  0  0
   -8.5188   -9.8504   -2.7313 H   0  0  0  0  0  0  0  0  0  0  0  0
  1  2  4  0
  2  3  4  0
  3  4  4  0
  4  5  4  0
  5  6  4  0
  6  7  4  0
  7  8  4  0
  8  9  4  0
  9 10  4  0
 10 11  4  0
 11 12  1  0
 12 13  4  0
 13 14  4  0
 14 15  4  0
 15 16  4  0
 16 17  4  0
 17 18  4  0
 18 19  4  0
 19 20  4  0
 20 21  4  0
 21 22  4  0
 22 23  4  0
 23 24  4  0
 24 25  4  0
 25 26  4  0
 26 27  4  0
 27 28  4  0
 28 29  4  0
 29 30  4  0
 30 31  4  0
 31 32  4  0
 32 33  4  0
 33 34  1  0
 34 35  4  0
 35 36  4  0
 36 37  4  0
 37 38  4  0
 38 39  4  0
 39 40  4  0
 40 41  4  0
 41 42  4  0
 42 43  4  0
 43 44  4  0
 44 45  4  0
 45 46  4  0
 46 47  4  0
 47 48  4  0
 48 49  4  0
 49 50  4  0
 50 51  4  0
 51 52  4  0
 52 53  4  0
 53 54  4  0
 54 55  4  0
 11 56  4  0
 56 57  4  0
 57 58  4  0
 58 59  4  0
 59 60  4  0
 60 61  4  0
 61 62  4  0
 62 63  4  0
 63 64  4  0
 64 65  4  0
 65 66  4  0
 66  1  4  0
 64  3  4  0
 62  5  4  0
 60  7  4  0
 58  9  4  0
 33 12  4  0
 55 34  4  0
 31 14  4  0
 54 37  4  0
 29 16  4  0
 52 39  4  0
 27 18  4  0
 50 41  4  0
 25 20  4  0
 48 43  4  0
  1 67  1  0
  2 68  1  0
  4 69  1  0
  6 70  1  0
  8 71  1  0
 10 72  1  0
 13 73  1  0
 15 74  1  0
 17 75  1  0
 19 76  1  0
 21 77  1  0
 22 78  1  0
 23 79  1  0
 24 80  1  0
 26 81  1  0
 28 82  1  0
 30 83  1  0
 32 84  1  0
 35 85  1  0
 36 86  1  0
 40 87  1  0
 42 88  1  0
 44 89  1  0
 45 90  1  0
 46 91  1  0
 47 92  1  0
 49 93  1  0
 51 94  1  0
 53 95  1  0
 55 96  1  0
 56 97  1  0
 57 98  1  0
 61 99  1  0
 63100  1  0
 65101  1  0
 66102  1  0
M  END
