
     RDKit          3D

102116  0  0  0  0  0  0  0  0999 V2000
    5.1221   -4.7053    5.4602 C   0  0  0  0  0  0  0  0  0  0  0  0
    6.3355   -5.0192    4.8592 C   0  0  0  0  0  0  0  0  0  0  0  0
    6.6354   -4.5129    3.5908 C   0  0  0  0  0  0  0  0  0  0  0  0
    5.7499   -3.6955    2.9013 C   0  0  0  0  0  0  0  0  0  0  0  0
    6.0879   -3.2357    1.6838 N   0  0  0  0  0  0  0  0  0  0  0  0
    5.2281   -2.4449    1.0183 C   0  0  0  0  0  0  0  0  0  0  0  0
    5.5768   -1.9716   -0.2387 C   0  0  0  0  0  0  0  0  0  0  0  0
    4.7253   -1.1448   -0.9930 C   0  0  0  0  0  0  0  0  0  0  0  0
    5.0883   -0.6779   -2.2654 C   0  0  0  0  0  0  0  0  0  0  0  0
    4.2267    0.1282   -3.0283 C   0  0  0  0  0  0  0  0  0  0  0  0
    4.6222    0.5722   -4.2984 C   0  0  0  0  0  0  0  0  0  0  0  0
    3.7814    1.3650   -5.0726 C   0  0  0  0  0  0  0  0  0  0  0  0
    2.5237    1.7107   -4.5909 C   0  0  0  0  0  0  0  0  0  0  0  0
    2.0837    1.2729   -3.3268 C   0  0  0  0  0  0  0  0  0  0  0  0
    0.7112    1.6349   -2.9072 C   0  0  0  0  0  0  0  0  0  0  0  0
    0.4823    2.9264   -2.3928 C   0  0  0  0  0  0  0  0  0  0  0  0
   -0.7948    3.3469   -1.9874 C   0  0  0  0  0  0  0  0  0  0  0  0
   -1.0145    4.6320   -1.4640 C   0  0  0  0  0  0  0  0  0  0  0  0
   -2.2928    5.0477   -1.0536 C   0  0  0  0  0  0  0  0  0  0  0  0
   -2.5132    6.3305   -0.5244 C   0  0  0  0  0  0  0  0  0  0  0  0
   -3.7911    6.7443   -0.1117 C   0  0  0  0  0  0  0  0  0  0  0  0
   -4.0104    8.0267    0.4189 C   0  0  0  0  0  0  0  0  0  0  0  0
   -5.2879    8.4402    0.8318 C   0  0  0  0  0  0  0  0  0  0  0  0
   -5.5076    9.7222    1.3623 C   0  0  0  0  0  0  0  0  0  0  0  0
   -6.7829   10.1184    1.7680 C   0  0  0  0  0  0  0  0  0  0  0  0
   -7.8544    9.2389    1.6487 C   0  0  0  0  0  0  0  0  0  0  0  0
   -7.6521    7.9617    1.1235 C   0  0  0  0  0  0  0  0  0  0  0  0
   -6.3745    7.5482    0.7108 C   0  0  0  0  0  0  0  0  0  0  0  0
   -6.1541    6.2664    0.1801 C   0  0  0  0  0  0  0  0  0  0  0  0
   -4.8758    5.8538   -0.2324 C   0  0  0  0  0  0  0  0  0  0  0  0
   -4.6556    4.5718   -0.7629 C   0  0  0  0  0  0  0  0  0  0  0  0
   -3.3776    4.1581   -1.1743 C   0  0  0  0  0  0  0  0  0  0  0  0
   -3.1583    2.8754   -1.7024 C   0  0  0  0  0  0  0  0  0  0  0  0
   -1.8799    2.4599   -2.1082 C   0  0  0  0  0  0  0  0  0  0  0  0
   -1.6608    1.1746   -2.6266 C   0  0  0  0  0  0  0  0  0  0  0  0
   -0.3795    0.7370   -3.0167 C   0  0  0  0  0  0  0  0  0  0  0  0
   -0.2242   -0.6484   -3.5185 C   0  0  0  0  0  0  0  0  0  0  0  0
   -0.0169   -0.8428   -4.8966 C   0  0  0  0  0  0  0  0  0  0  0  0
    0.1643   -2.1169   -5.4229 C   0  0  0  0  0  0  0  0  0  0  0  0
    0.1362   -3.2226   -4.5797 C   0  0  0  0  0  0  0  0  0  0  0  0
   -0.0834   -3.0744   -3.2029 C   0  0  0  0  0  0  0  0  0  0  0  0
   -0.1104   -4.2070   -2.3711 C   0  0  0  0  0  0  0  0  0  0  0  0
   -0.3361   -4.1036   -0.9904 C   0  0  0  0  0  0  0  0  0  0  0  0
   -0.3675   -5.2379   -0.1596 C   0  0  0  0  0  0  0  0  0  0  0  0
   -0.5943   -5.1502    1.2066 C   0  0  0  0  0  0  0  0  0  0  0  0
   -0.6137   -6.2749    1.9424 N   0  0  0  0  0  0  0  0  0  0  0  0
   -0.8333   -6.1909    3.2662 C   0  0  0  0  0  0  0  0  0  0  0  0
   -0.8537   -7.3509    4.0292 C   0  0  0  0  0  0  0  0  0  0  0  0
   -1.0778   -7.3212    5.4090 C   0  0  0  0  0  0  0  0  0  0  0  0
   -1.2874   -6.1058    6.0498 C   0  0  0  0  0  0  0  0  0  0  0  0
   -1.2721   -4.9265    5.3085 C   0  0  0  0  0  0  0  0  0  0  0  0
   -1.0465   -4.9630    3.9206 C   0  0  0  0  0  0  0  0  0  0  0  0
   -1.0252   -3.7990    3.1450 C   0  0  0  0  0  0  0  0  0  0  0  0
   -0.7970   -3.8775    1.7668 C   0  0  0  0  0  0  0  0  0  0  0  0
   -0.7681   -2.7317    0.9527 C   0  0  0  0  0  0  0  0  0  0  0  0
   -0.5382   -2.8351   -0.4268 C   0  0  0  0  0  0  0  0  0  0  0  0
   -0.5050   -1.7021   -1.2571 C   0  0  0  0  0  0  0  0  0  0  0  0
   -0.2763   -1.7845   -2.6529 C   0  0  0  0  0  0  0  0  0  0  0  0
    2.9568    0.4891   -2.5176 C   0  0  0  0  0  0  0  0  0  0  0  0
    2.6246    0.0407   -1.2184 C   0  0  0  0  0  0  0  0  0  0  0  0
    3.4797   -0.7771   -0.4616 C   0  0  0  0  0  0  0  0  0  0  0  0
    3.1176   -1.2432    0.8102 C   0  0  0  0  0  0  0  0  0  0  0  0
    3.9805   -2.0729    1.5467 C   0  0  0  0  0  0  0  0  0  0  0  0
    3.6369   -2.5563    2.8141 C   0  0  0  0  0  0  0  0  0  0  0  0
    4.5230   -3.3807    3.5151 C   0  0  0  0  0  0  0  0  0  0  0  0
    4.2151   -3.8870    4.7907 C   0  0  0  0  0  0  0  0  0  0  0  0
    4.8828   -5.0958    6.4459 H   0  0  0  0  0  0  0  0  0  0  0  0
    7.0519   -5.6565    5.3708 H   0  0  0  0  0  0  0  0  0  0  0  0
    7.5866   -4.7630    3.1268 H   0  0  0  0  0  0  0  0  0  0  0  0
    6.5445   -2.2646   -0.6407 H   0  0  0  0  0  0  0  0  0  0  0  0
    6.0586   -0.9571   -2.6735 H   0  0  0  0  0  0  0  0  0  0  0  0
    5.5974    0.2998   -4.6970 H   0  0  0  0  0  0  0  0  0  0  0  0
    4.1016    1.7027   -6.0544 H   0  0  0  0  0  0  0  0  0  0  0  0
    1.8684    2.3162   -5.2148 H   0  0  0  0  0  0  0  0  0  0  0  0
    1.3252    3.6119   -2.3050 H   0  0  0  0  0  0  0  0  0  0  0  0
   -0.1764    5.3211   -1.3730 H   0  0  0  0  0  0  0  0  0  0  0  0
   -1.6751    7.0191   -0.4315 H   0  0  0  0  0  0  0  0  0  0  0  0
   -3.1733    8.7162    0.5126 H   0  0  0  0  0  0  0  0  0  0  0  0
   -4.6829   10.4241    1.4637 H   0  0  0  0  0  0  0  0  0  0  0  0
   -6.9381   11.1135    2.1768 H   0  0  0  0  0  0  0  0  0  0  0  0
   -8.8483    9.5453    1.9640 H   0  0  0  0  0  0  0  0  0  0  0  0
   -8.5022    7.2885    1.0382 H   0  0  0  0  0  0  0  0  0  0  0  0
   -6.9927    5.5786    0.0868 H   0  0  0  0  0  0  0  0  0  0  0  0
   -5.4935    3.8831   -0.8575 H   0  0  0  0  0  0  0  0  0  0  0  0
   -3.9968    2.1871   -1.7965 H   0  0  0  0  0  0  0  0  0  0  0  0
   -2.4998    0.4854   -2.7219 H   0  0  0  0  0  0  0  0  0  0  0  0
    0.0144    0.0128   -5.5680 H   0  0  0  0  0  0  0  0  0  0  0  0
    0.3350   -2.2476   -6.4879 H   0  0  0  0  0  0  0  0  0  0  0  0
    0.2895   -4.2105   -5.0093 H   0  0  0  0  0  0  0  0  0  0  0  0
    0.0459   -5.1924   -2.8080 H   0  0  0  0  0  0  0  0  0  0  0  0
   -0.2103   -6.2266   -0.5860 H   0  0  0  0  0  0  0  0  0  0  0  0
   -0.6902   -8.3057    3.5348 H   0  0  0  0  0  0  0  0  0  0  0  0
   -1.0872   -8.2486    5.9759 H   0  0  0  0  0  0  0  0  0  0  0  0
   -1.4619   -6.0758    7.1222 H   0  0  0  0  0  0  0  0  0  0  0  0
   -1.4364   -3.9793    5.8169 H   0  0  0  0  0  0  0  0  0  0  0  0
   -1.1871   -2.8321    3.6153 H   0  0  0  0  0  0  0  0  0  0  0  0
   -0.9263   -1.7517    1.3986 H   0  0  0  0  0  0  0  0  0  0  0  0
   -0.6615   -0.7274   -0.7991 H   0  0  0  0  0  0  0  0  0  0  0  0
    1.6701    0.3302   -0.7852 H   0  0  0  0  0  0  0  0  0  0  0  0
    2.1520   -0.9664    1.2282 H   0  0  0  0  0  0  0  0  0  0  0  0
    2.6785   -2.2920    3.2542 H   0  0  0  0  0  0  0  0  0  0  0  0
    3.2677   -3.6459    5.2671 H   0  0  0  0  0  0  0  0  0  0  0  0
  1  2  4  0
  2  3  4  0
  3  4  4  0
  4  5  4  0
  5  6  4  0
  6  7  4  0
  7  8  4  0
  8  9  4  0
  9 10  4  0
 10 11  4  0
 11 12  4  0
 12 13  4  0
 13 14  4  0
 14 15  1  0
 15 16  4  0
 16 17  4  0
 17 18  4  0
 18 19  4  0
 19 20  4  0
 20 21  4  0
 21 22  4  0
 22 23  4  0
 23 24  4  0
 24 25  4  0
 25 26  4  0
 26 27  4  0
 27 28  4  0
 28 29  4  0
 29 30  4  0
 30 31  4  0
 31 32  4  0
 32 33  4  0
 33 34  4  0
 34 35  4  0
 35 36  4  0
 36 37  1  0
 37 38  4  0
 38 39  4  0
 39 40  4  0
 40 41  4  0
 41 42  4  0
 42 43  4  0
 43 44  4  0
 44 45  4  0
 45 46  4  0
 46 47  4  0
 47 48  4  0
 48 49  4  0
 49 50  4  0
 50 51  4  0
 51 52  4  0
 52 53  4  0
 53 54  4  0
 54 55  4  0
 55 56  4  0
 56 57  4  0
 57 58  4  0
 14 59  4  0
 59 60  4  0
 60 61  4  0
 61 62  4  0
 62 63  4  0
 63 64  4  0
 64 65  4  0
 65 66  4  0
 66  1  4  0
 65  4  4  0
 63  6  4  0
 61  8  4  0
 59 10  4  0
 36 15  4  0
 58 37  4  0
 34 17  4  0
 58 41  4  0
 32 19  4  0
 56 43  4  0
 30 21  4  0
 54 45  4  0
 28 23  4  0
 52 47  4  0
  1 67  1  0
  2 68  1  0
  3 69  1  0
  7 70  1  0
  9 71  1  0
 11 72  1  0
 12 73  1  0
 13 74  1  0
 16 75  1  0
 18 76  1  0
 20 77  1  0
 22 78  1  0
 24 79  1  0
 25 80  1  0
 26 81  1  0
 27 82  1  0
 29 83  1  0
 31 84  1  0
 33 85  1  0
 35 86  1  0
 38 87  1  0
 39 88  1  0
 40 89  1  0
 42 90  1  0
 44 91  1  0
 48 92  1  0
 49 93  1  0
 50 94  1  0
 51 95  1  0
 53 96  1  0
 55 97  1  0
 57 98  1  0
 60 99  1  0
 62100  1  0
 64101  1  0
 66102  1  0
M  END
