
     RDKit          3D

102116  0  0  0  0  0  0  0  0999 V2000
   -5.0871   -1.0695   -2.7151 C   0  0  0  0  0  0  0  0  0  0  0  0
   -3.8139   -1.6128   -2.6693 C   0  0  0  0  0  0  0  0  0  0  0  0
   -2.8032   -0.9285   -1.9960 C   0  0  0  0  0  0  0  0  0  0  0  0
   -3.0483    0.3033   -1.3380 C   0  0  0  0  0  0  0  0  0  0  0  0
   -4.3391    0.8556   -1.4238 C   0  0  0  0  0  0  0  0  0  0  0  0
   -5.3321    0.1584   -2.0994 C   0  0  0  0  0  0  0  0  0  0  0  0
   -4.6643    2.0383   -0.8892 N   0  0  0  0  0  0  0  0  0  0  0  0
   -3.7301    2.7621   -0.2625 C   0  0  0  0  0  0  0  0  0  0  0  0
   -4.1076    4.0017    0.2357 C   0  0  0  0  0  0  0  0  0  0  0  0
   -3.2089    4.8623    0.8852 C   0  0  0  0  0  0  0  0  0  0  0  0
   -3.6113    6.1153    1.3778 C   0  0  0  0  0  0  0  0  0  0  0  0
   -2.7032    6.9754    2.0167 C   0  0  0  0  0  0  0  0  0  0  0  0
   -3.1029    8.2283    2.5091 C   0  0  0  0  0  0  0  0  0  0  0  0
   -2.1876    9.0729    3.1390 C   0  0  0  0  0  0  0  0  0  0  0  0
   -0.8619    8.6764    3.2845 C   0  0  0  0  0  0  0  0  0  0  0  0
   -0.4494    7.4341    2.8008 C   0  0  0  0  0  0  0  0  0  0  0  0
   -1.3590    6.5726    2.1651 C   0  0  0  0  0  0  0  0  0  0  0  0
   -0.9608    5.3191    1.6726 C   0  0  0  0  0  0  0  0  0  0  0  0
   -1.8741    4.4598    1.0366 C   0  0  0  0  0  0  0  0  0  0  0  0
   -1.4902    3.2030    0.5436 C   0  0  0  0  0  0  0  0  0  0  0  0
   -2.4049    2.3269   -0.0994 C   0  0  0  0  0  0  0  0  0  0  0  0
   -2.0718    1.0337   -0.6034 C   0  0  0  0  0  0  0  0  0  0  0  0
   -0.7204    0.4621   -0.3581 C   0  0  0  0  0  0  0  0  0  0  0  0
    0.3311    0.8334   -1.2199 C   0  0  0  0  0  0  0  0  0  0  0  0
    1.6429    0.3730   -1.0284 C   0  0  0  0  0  0  0  0  0  0  0  0
    2.6845    0.7516   -1.8912 C   0  0  0  0  0  0  0  0  0  0  0  0
    3.9994    0.2960   -1.6965 C   0  0  0  0  0  0  0  0  0  0  0  0
    5.0431    0.6745   -2.5580 C   0  0  0  0  0  0  0  0  0  0  0  0
    6.3575    0.2171   -2.3633 C   0  0  0  0  0  0  0  0  0  0  0  0
    7.4003    0.5941   -3.2265 C   0  0  0  0  0  0  0  0  0  0  0  0
    8.7145    0.1375   -3.0316 C   0  0  0  0  0  0  0  0  0  0  0  0
    9.7574    0.5141   -3.8943 C   0  0  0  0  0  0  0  0  0  0  0  0
   11.0580    0.0519   -3.6870 C   0  0  0  0  0  0  0  0  0  0  0  0
   11.3326   -0.7921   -2.6155 C   0  0  0  0  0  0  0  0  0  0  0  0
   10.3071   -1.1752   -1.7498 C   0  0  0  0  0  0  0  0  0  0  0  0
    8.9929   -0.7185   -1.9451 C   0  0  0  0  0  0  0  0  0  0  0  0
    7.9497   -1.0951   -1.0829 C   0  0  0  0  0  0  0  0  0  0  0  0
    6.6353   -0.6379   -1.2790 C   0  0  0  0  0  0  0  0  0  0  0  0
    5.5914   -1.0150   -0.4172 C   0  0  0  0  0  0  0  0  0  0  0  0
    4.2773   -0.5593   -0.6130 C   0  0  0  0  0  0  0  0  0  0  0  0
    3.2345   -0.9389    0.2486 C   0  0  0  0  0  0  0  0  0  0  0  0
    1.9210   -0.4827    0.0533 C   0  0  0  0  0  0  0  0  0  0  0  0
    0.8787   -0.8674    0.9110 C   0  0  0  0  0  0  0  0  0  0  0  0
   -0.4447   -0.4222    0.7194 C   0  0  0  0  0  0  0  0  0  0  0  0
   -1.5008   -0.9256    1.6398 C   0  0  0  0  0  0  0  0  0  0  0  0
   -2.1187   -2.1891    1.3968 C   0  0  0  0  0  0  0  0  0  0  0  0
   -1.7292   -3.0914    0.3722 C   0  0  0  0  0  0  0  0  0  0  0  0
   -2.3883   -4.3109    0.1551 C   0  0  0  0  0  0  0  0  0  0  0  0
   -2.0017   -5.1893   -0.8718 C   0  0  0  0  0  0  0  0  0  0  0  0
   -2.6710   -6.4057   -1.0827 C   0  0  0  0  0  0  0  0  0  0  0  0
   -2.2866   -7.2863   -2.1075 C   0  0  0  0  0  0  0  0  0  0  0  0
   -2.9607   -8.4928   -2.3022 C   0  0  0  0  0  0  0  0  0  0  0  0
   -4.0274   -8.8335   -1.4763 C   0  0  0  0  0  0  0  0  0  0  0  0
   -4.4218   -7.9685   -0.4543 C   0  0  0  0  0  0  0  0  0  0  0  0
   -3.7529   -6.7511   -0.2451 C   0  0  0  0  0  0  0  0  0  0  0  0
   -4.1350   -5.8702    0.7803 C   0  0  0  0  0  0  0  0  0  0  0  0
   -3.4623   -4.6537    0.9886 C   0  0  0  0  0  0  0  0  0  0  0  0
   -3.8317   -3.7704    2.0154 C   0  0  0  0  0  0  0  0  0  0  0  0
   -3.1809   -2.5638    2.2361 C   0  0  0  0  0  0  0  0  0  0  0  0
   -3.6039   -1.8113    3.2582 N   0  0  0  0  0  0  0  0  0  0  0  0
   -2.9866   -0.6548    3.5293 C   0  0  0  0  0  0  0  0  0  0  0  0
   -3.4373    0.0766    4.6204 C   0  0  0  0  0  0  0  0  0  0  0  0
   -2.8455    1.2823    4.9993 C   0  0  0  0  0  0  0  0  0  0  0  0
   -1.7652    1.7673    4.2807 C   0  0  0  0  0  0  0  0  0  0  0  0
   -1.2970    1.0482    3.1824 C   0  0  0  0  0  0  0  0  0  0  0  0
   -1.9095   -0.1617    2.7690 C   0  0  0  0  0  0  0  0  0  0  0  0
   -5.8892   -1.5896   -3.2313 H   0  0  0  0  0  0  0  0  0  0  0  0
   -3.6050   -2.5647   -3.1504 H   0  0  0  0  0  0  0  0  0  0  0  0
   -1.8085   -1.3659   -1.9935 H   0  0  0  0  0  0  0  0  0  0  0  0
   -6.3304    0.5878   -2.1494 H   0  0  0  0  0  0  0  0  0  0  0  0
   -5.1446    4.3059    0.1031 H   0  0  0  0  0  0  0  0  0  0  0  0
   -4.6477    6.4278    1.2590 H   0  0  0  0  0  0  0  0  0  0  0  0
   -4.1346    8.5569    2.4048 H   0  0  0  0  0  0  0  0  0  0  0  0
   -2.5116   10.0397    3.5153 H   0  0  0  0  0  0  0  0  0  0  0  0
   -0.1478    9.3329    3.7749 H   0  0  0  0  0  0  0  0  0  0  0  0
    0.5910    7.1415    2.9241 H   0  0  0  0  0  0  0  0  0  0  0  0
    0.0769    5.0104    1.7853 H   0  0  0  0  0  0  0  0  0  0  0  0
   -0.4512    2.9021    0.6611 H   0  0  0  0  0  0  0  0  0  0  0  0
    0.1148    1.5039   -2.0520 H   0  0  0  0  0  0  0  0  0  0  0  0
    2.4689    1.4130   -2.7289 H   0  0  0  0  0  0  0  0  0  0  0  0
    4.8297    1.3374   -3.3950 H   0  0  0  0  0  0  0  0  0  0  0  0
    7.1864    1.2538   -4.0655 H   0  0  0  0  0  0  0  0  0  0  0  0
    9.5628    1.1732   -4.7374 H   0  0  0  0  0  0  0  0  0  0  0  0
   11.8549    0.3516   -4.3625 H   0  0  0  0  0  0  0  0  0  0  0  0
   12.3446   -1.1532   -2.4522 H   0  0  0  0  0  0  0  0  0  0  0  0
   10.5418   -1.8357   -0.9180 H   0  0  0  0  0  0  0  0  0  0  0  0
    8.1659   -1.7555   -0.2451 H   0  0  0  0  0  0  0  0  0  0  0  0
    5.8063   -1.6757    0.4211 H   0  0  0  0  0  0  0  0  0  0  0  0
    3.4495   -1.6024    1.0849 H   0  0  0  0  0  0  0  0  0  0  0  0
    1.0903   -1.5386    1.7436 H   0  0  0  0  0  0  0  0  0  0  0  0
   -0.8922   -2.8389   -0.2755 H   0  0  0  0  0  0  0  0  0  0  0  0
   -1.1664   -4.9230   -1.5170 H   0  0  0  0  0  0  0  0  0  0  0  0
   -1.4546   -7.0384   -2.7630 H   0  0  0  0  0  0  0  0  0  0  0  0
   -2.6517   -9.1662   -3.0976 H   0  0  0  0  0  0  0  0  0  0  0  0
   -4.5536   -9.7729   -1.6256 H   0  0  0  0  0  0  0  0  0  0  0  0
   -5.2571   -8.2542    0.1815 H   0  0  0  0  0  0  0  0  0  0  0  0
   -4.9689   -6.1355    1.4281 H   0  0  0  0  0  0  0  0  0  0  0  0
   -4.6577   -4.0280    2.6762 H   0  0  0  0  0  0  0  0  0  0  0  0
   -4.2777   -0.3062    5.1955 H   0  0  0  0  0  0  0  0  0  0  0  0
   -3.2272    1.8310    5.8558 H   0  0  0  0  0  0  0  0  0  0  0  0
   -1.2881    2.7004    4.5685 H   0  0  0  0  0  0  0  0  0  0  0  0
   -0.4363    1.4415    2.6482 H   0  0  0  0  0  0  0  0  0  0  0  0
  1  2  4  0
  2  3  4  0
  3  4  4  0
  4  5  4  0
  5  6  4  0
  5  7  4  0
  7  8  4  0
  8  9  4  0
  9 10  4  0
 10 11  4  0
 11 12  4  0
 12 13  4  0
 13 14  4  0
 14 15  4  0
 15 16  4  0
 16 17  4  0
 17 18  4  0
 18 19  4  0
 19 20  4  0
 20 21  4  0
 21 22  4  0
 22 23  1  0
 23 24  4  0
 24 25  4  0
 25 26  4  0
 26 27  4  0
 27 28  4  0
 28 29  4  0
 29 30  4  0
 30 31  4  0
 31 32  4  0
 32 33  4  0
 33 34  4  0
 34 35  4  0
 35 36  4  0
 36 37  4  0
 37 38  4  0
 38 39  4  0
 39 40  4  0
 40 41  4  0
 41 42  4  0
 42 43  4  0
 43 44  4  0
 44 45  1  0
 45 46  4  0
 46 47  4  0
 47 48  4  0
 48 49  4  0
 49 50  4  0
 50 51  4  0
 51 52  4  0
 52 53  4  0
 53 54  4  0
 54 55  4  0
 55 56  4  0
 56 57  4  0
 57 58  4  0
 58 59  4  0
 59 60  4  0
 60 61  4  0
 61 62  4  0
 62 63  4  0
 63 64  4  0
 64 65  4  0
 65 66  4  0
  6  1  4  0
 21  8  4  0
 44 23  4  0
 66 45  4  0
 22  4  4  0
 42 25  4  0
 59 46  4  0
 66 61  4  0
 19 10  4  0
 40 27  4  0
 57 48  4  0
 17 12  4  0
 38 29  4  0
 55 50  4  0
 36 31  4  0
  1 67  1  0
  2 68  1  0
  3 69  1  0
  6 70  1  0
  9 71  1  0
 11 72  1  0
 13 73  1  0
 14 74  1  0
 15 75  1  0
 16 76  1  0
 18 77  1  0
 20 78  1  0
 24 79  1  0
 26 80  1  0
 28 81  1  0
 30 82  1  0
 32 83  1  0
 33 84  1  0
 34 85  1  0
 35 86  1  0
 37 87  1  0
 39 88  1  0
 41 89  1  0
 43 90  1  0
 47 91  1  0
 49 92  1  0
 51 93  1  0
 52 94  1  0
 53 95  1  0
 54 96  1  0
 56 97  1  0
 58 98  1  0
 62 99  1  0
 63100  1  0
 64101  1  0
 65102  1  0
M  END
