
     RDKit          3D

102116  0  0  0  0  0  0  0  0999 V2000
   -7.8281  -10.0883   -0.7353 C   0  0  0  0  0  0  0  0  0  0  0  0
   -8.3835   -9.3143   -1.7475 C   0  0  0  0  0  0  0  0  0  0  0  0
   -7.9445   -8.0006   -1.9392 C   0  0  0  0  0  0  0  0  0  0  0  0
   -6.9586   -7.4348   -1.1416 C   0  0  0  0  0  0  0  0  0  0  0  0
   -6.5727   -6.1667   -1.3684 N   0  0  0  0  0  0  0  0  0  0  0  0
   -5.6184   -5.6225   -0.5947 C   0  0  0  0  0  0  0  0  0  0  0  0
   -5.2222   -4.3145   -0.8313 C   0  0  0  0  0  0  0  0  0  0  0  0
   -4.2285   -3.6811   -0.0655 C   0  0  0  0  0  0  0  0  0  0  0  0
   -3.8373   -2.3582   -0.3265 C   0  0  0  0  0  0  0  0  0  0  0  0
   -2.8372   -1.7294    0.4314 C   0  0  0  0  0  0  0  0  0  0  0  0
   -2.4335   -0.4121    0.1564 C   0  0  0  0  0  0  0  0  0  0  0  0
   -1.4148    0.2098    0.8951 C   0  0  0  0  0  0  0  0  0  0  0  0
   -0.9675    1.5704    0.5541 C   0  0  0  0  0  0  0  0  0  0  0  0
   -1.7860    2.6621    0.9025 C   0  0  0  0  0  0  0  0  0  0  0  0
   -1.4179    3.9855    0.6126 C   0  0  0  0  0  0  0  0  0  0  0  0
   -2.2408    5.0684    0.9640 C   0  0  0  0  0  0  0  0  0  0  0  0
   -1.8724    6.3930    0.6742 C   0  0  0  0  0  0  0  0  0  0  0  0
   -2.6949    7.4766    1.0258 C   0  0  0  0  0  0  0  0  0  0  0  0
   -2.3271    8.8013    0.7360 C   0  0  0  0  0  0  0  0  0  0  0  0
   -3.1503    9.8845    1.0881 C   0  0  0  0  0  0  0  0  0  0  0  0
   -2.7826   11.2090    0.7982 C   0  0  0  0  0  0  0  0  0  0  0  0
   -3.6050   12.2924    1.1498 C   0  0  0  0  0  0  0  0  0  0  0  0
   -3.2252   13.6026    0.8547 C   0  0  0  0  0  0  0  0  0  0  0  0
   -2.0194   13.8465    0.2048 C   0  0  0  0  0  0  0  0  0  0  0  0
   -1.1915   12.7807   -0.1510 C   0  0  0  0  0  0  0  0  0  0  0  0
   -1.5598   11.4564    0.1391 C   0  0  0  0  0  0  0  0  0  0  0  0
   -0.7376   10.3729   -0.2123 C   0  0  0  0  0  0  0  0  0  0  0  0
   -1.1065    9.0484    0.0781 C   0  0  0  0  0  0  0  0  0  0  0  0
   -0.2839    7.9646   -0.2732 C   0  0  0  0  0  0  0  0  0  0  0  0
   -0.6519    6.6398    0.0167 C   0  0  0  0  0  0  0  0  0  0  0  0
    0.1705    5.5557   -0.3345 C   0  0  0  0  0  0  0  0  0  0  0  0
   -0.1980    4.2314   -0.0437 C   0  0  0  0  0  0  0  0  0  0  0  0
    0.6225    3.1466   -0.3947 C   0  0  0  0  0  0  0  0  0  0  0  0
    0.2579    1.8160   -0.1099 C   0  0  0  0  0  0  0  0  0  0  0  0
    1.1624    0.7270   -0.5191 C   0  0  0  0  0  0  0  0  0  0  0  0
    2.3682    0.5036    0.1649 C   0  0  0  0  0  0  0  0  0  0  0  0
    3.2287   -0.5506   -0.1890 C   0  0  0  0  0  0  0  0  0  0  0  0
    4.4261   -0.7841    0.5072 C   0  0  0  0  0  0  0  0  0  0  0  0
    5.2816   -1.8431    0.1595 C   0  0  0  0  0  0  0  0  0  0  0  0
    6.4776   -2.0817    0.8596 C   0  0  0  0  0  0  0  0  0  0  0  0
    7.3346   -3.1234    0.5329 C   0  0  0  0  0  0  0  0  0  0  0  0
    8.4606   -3.2954    1.2467 N   0  0  0  0  0  0  0  0  0  0  0  0
    9.2929   -4.3034    0.9303 C   0  0  0  0  0  0  0  0  0  0  0  0
   10.4573   -4.4832    1.6654 C   0  0  0  0  0  0  0  0  0  0  0  0
   11.3577   -5.5142    1.3795 C   0  0  0  0  0  0  0  0  0  0  0  0
   11.0949   -6.3918    0.3343 C   0  0  0  0  0  0  0  0  0  0  0  0
    9.9339   -6.2346   -0.4195 C   0  0  0  0  0  0  0  0  0  0  0  0
    9.0319   -5.1953   -0.1268 C   0  0  0  0  0  0  0  0  0  0  0  0
    7.8565   -5.0074   -0.8621 C   0  0  0  0  0  0  0  0  0  0  0  0
    6.9846   -3.9612   -0.5396 C   0  0  0  0  0  0  0  0  0  0  0  0
    5.7928   -3.7407   -1.2532 C   0  0  0  0  0  0  0  0  0  0  0  0
    4.9334   -2.6862   -0.9120 C   0  0  0  0  0  0  0  0  0  0  0  0
    3.7367   -2.4542   -1.6106 C   0  0  0  0  0  0  0  0  0  0  0  0
    2.8797   -1.3977   -1.2608 C   0  0  0  0  0  0  0  0  0  0  0  0
    1.6811   -1.1692   -1.9521 C   0  0  0  0  0  0  0  0  0  0  0  0
    0.8351   -0.1195   -1.5860 C   0  0  0  0  0  0  0  0  0  0  0  0
   -0.8191   -0.5027    1.9430 C   0  0  0  0  0  0  0  0  0  0  0  0
   -1.2132   -1.8112    2.2323 C   0  0  0  0  0  0  0  0  0  0  0  0
   -2.2174   -2.4387    1.4808 C   0  0  0  0  0  0  0  0  0  0  0  0
   -2.6134   -3.7599    1.7455 C   0  0  0  0  0  0  0  0  0  0  0  0
   -3.6100   -4.3895    0.9815 C   0  0  0  0  0  0  0  0  0  0  0  0
   -4.0042   -5.7115    1.2316 C   0  0  0  0  0  0  0  0  0  0  0  0
   -4.9994   -6.3274    0.4518 C   0  0  0  0  0  0  0  0  0  0  0  0
   -5.4072   -7.6462    0.6808 C   0  0  0  0  0  0  0  0  0  0  0  0
   -6.3999   -8.2234   -0.1182 C   0  0  0  0  0  0  0  0  0  0  0  0
   -6.8372   -9.5456    0.0798 C   0  0  0  0  0  0  0  0  0  0  0  0
   -8.1648  -11.1101   -0.5809 H   0  0  0  0  0  0  0  0  0  0  0  0
   -9.1573   -9.7257   -2.3904 H   0  0  0  0  0  0  0  0  0  0  0  0
   -8.3832   -7.4005   -2.7329 H   0  0  0  0  0  0  0  0  0  0  0  0
   -5.7063   -3.7766   -1.6441 H   0  0  0  0  0  0  0  0  0  0  0  0
   -4.3143   -1.8115   -1.1384 H   0  0  0  0  0  0  0  0  0  0  0  0
   -2.9003    0.1342   -0.6616 H   0  0  0  0  0  0  0  0  0  0  0  0
   -2.7271    2.4685    1.4165 H   0  0  0  0  0  0  0  0  0  0  0  0
   -3.1846    4.8765    1.4718 H   0  0  0  0  0  0  0  0  0  0  0  0
   -3.6381    7.2851    1.5344 H   0  0  0  0  0  0  0  0  0  0  0  0
   -4.0936    9.6945    1.5968 H   0  0  0  0  0  0  0  0  0  0  0  0
   -4.5513   12.1221    1.6583 H   0  0  0  0  0  0  0  0  0  0  0  0
   -3.8714   14.4311    1.1326 H   0  0  0  0  0  0  0  0  0  0  0  0
   -1.7216   14.8660   -0.0261 H   0  0  0  0  0  0  0  0  0  0  0  0
   -0.2529   12.9918   -0.6584 H   0  0  0  0  0  0  0  0  0  0  0  0
    0.2056   10.5649   -0.7206 H   0  0  0  0  0  0  0  0  0  0  0  0
    0.6596    8.1563   -0.7815 H   0  0  0  0  0  0  0  0  0  0  0  0
    1.1140    5.7462   -0.8434 H   0  0  0  0  0  0  0  0  0  0  0  0
    1.5647    3.3332   -0.9095 H   0  0  0  0  0  0  0  0  0  0  0  0
    2.6286    1.1531    0.9992 H   0  0  0  0  0  0  0  0  0  0  0  0
    4.6954   -0.1326    1.3371 H   0  0  0  0  0  0  0  0  0  0  0  0
    6.7564   -1.4375    1.6912 H   0  0  0  0  0  0  0  0  0  0  0  0
   10.6695   -3.8001    2.4846 H   0  0  0  0  0  0  0  0  0  0  0  0
   12.2598   -5.6257    1.9755 H   0  0  0  0  0  0  0  0  0  0  0  0
   11.7907   -7.1954    0.1069 H   0  0  0  0  0  0  0  0  0  0  0  0
    9.7350   -6.9252   -1.2357 H   0  0  0  0  0  0  0  0  0  0  0  0
    7.6214   -5.6765   -1.6863 H   0  0  0  0  0  0  0  0  0  0  0  0
    5.5333   -4.3985   -2.0804 H   0  0  0  0  0  0  0  0  0  0  0  0
    3.4652   -3.1077   -2.4378 H   0  0  0  0  0  0  0  0  0  0  0  0
    1.3895   -1.8124   -2.7792 H   0  0  0  0  0  0  0  0  0  0  0  0
   -0.0931    0.0267   -2.1343 H   0  0  0  0  0  0  0  0  0  0  0  0
   -0.0272   -0.0457    2.5324 H   0  0  0  0  0  0  0  0  0  0  0  0
   -0.7177   -2.3396    3.0437 H   0  0  0  0  0  0  0  0  0  0  0  0
   -2.1329   -4.3076    2.5542 H   0  0  0  0  0  0  0  0  0  0  0  0
   -3.5324   -6.2694    2.0381 H   0  0  0  0  0  0  0  0  0  0  0  0
   -4.9520   -8.2246    1.4810 H   0  0  0  0  0  0  0  0  0  0  0  0
   -6.4072  -10.1570    0.8696 H   0  0  0  0  0  0  0  0  0  0  0  0
  1  2  4  0
  2  3  4  0
  3  4  4  0
  4  5  4  0
  5  6  4  0
  6  7  4  0
  7  8  4  0
  8  9  4  0
  9 10  4  0
 10 11  4  0
 11 12  4  0
 12 13  1  0
 13 14  4  0
 14 15  4  0
 15 16  4  0
 16 17  4  0
 17 18  4  0
 18 19  4  0
 19 20  4  0
 20 21  4  0
 21 22  4  0
 22 23  4  0
 23 24  4  0
 24 25  4  0
 25 26  4  0
 26 27  4  0
 27 28  4  0
 28 29  4  0
 29 30  4  0
 30 31  4  0
 31 32  4  0
 32 33  4  0
 33 34  4  0
 34 35  1  0
 35 36  4  0
 36 37  4  0
 37 38  4  0
 38 39  4  0
 39 40  4  0
 40 41  4  0
 41 42  4  0
 42 43  4  0
 43 44  4  0
 44 45  4  0
 45 46  4  0
 46 47  4  0
 47 48  4  0
 48 49  4  0
 49 50  4  0
 50 51  4  0
 51 52  4  0
 52 53  4  0
 53 54  4  0
 54 55  4  0
 55 56  4  0
 12 57  4  0
 57 58  4  0
 58 59  4  0
 59 60  4  0
 60 61  4  0
 61 62  4  0
 62 63  4  0
 63 64  4  0
 64 65  4  0
 65 66  4  0
 66  1  4  0
 65  4  4  0
 63  6  4  0
 61  8  4  0
 59 10  4  0
 34 13  4  0
 56 35  4  0
 32 15  4  0
 54 37  4  0
 30 17  4  0
 52 39  4  0
 28 19  4  0
 50 41  4  0
 26 21  4  0
 48 43  4  0
  1 67  1  0
  2 68  1  0
  3 69  1  0
  7 70  1  0
  9 71  1  0
 11 72  1  0
 14 73  1  0
 16 74  1  0
 18 75  1  0
 20 76  1  0
 22 77  1  0
 23 78  1  0
 24 79  1  0
 25 80  1  0
 27 81  1  0
 29 82  1  0
 31 83  1  0
 33 84  1  0
 36 85  1  0
 38 86  1  0
 40 87  1  0
 44 88  1  0
 45 89  1  0
 46 90  1  0
 47 91  1  0
 49 92  1  0
 51 93  1  0
 53 94  1  0
 55 95  1  0
 56 96  1  0
 57 97  1  0
 58 98  1  0
 60 99  1  0
 62100  1  0
 64101  1  0
 66102  1  0
M  END
