
     RDKit          3D

102116  0  0  0  0  0  0  0  0999 V2000
   -4.3993    8.1883   -2.3426 C   0  0  0  0  0  0  0  0  0  0  0  0
   -3.1219    7.9555   -2.8387 C   0  0  0  0  0  0  0  0  0  0  0  0
   -2.4058    6.8317   -2.4158 C   0  0  0  0  0  0  0  0  0  0  0  0
   -2.9357    5.9267   -1.5053 C   0  0  0  0  0  0  0  0  0  0  0  0
   -2.2074    4.8595   -1.1346 N   0  0  0  0  0  0  0  0  0  0  0  0
   -2.7255    3.9825   -0.2543 C   0  0  0  0  0  0  0  0  0  0  0  0
   -1.9850    2.8686    0.1207 C   0  0  0  0  0  0  0  0  0  0  0  0
   -2.4477    1.8795    1.0278 C   0  0  0  0  0  0  0  0  0  0  0  0
   -3.7153    2.0877    1.6054 C   0  0  0  0  0  0  0  0  0  0  0  0
   -4.4805    3.2039    1.2338 C   0  0  0  0  0  0  0  0  0  0  0  0
   -3.9982    4.1421    0.3072 C   0  0  0  0  0  0  0  0  0  0  0  0
   -4.7509    5.2561   -0.0826 C   0  0  0  0  0  0  0  0  0  0  0  0
   -4.2280    6.1696   -1.0038 C   0  0  0  0  0  0  0  0  0  0  0  0
   -4.9535    7.2985   -1.4251 C   0  0  0  0  0  0  0  0  0  0  0  0
   -4.2118    1.1799    2.5482 C   0  0  0  0  0  0  0  0  0  0  0  0
   -3.4670    0.0726    2.9685 C   0  0  0  0  0  0  0  0  0  0  0  0
   -3.9896   -0.7960    3.9438 C   0  0  0  0  0  0  0  0  0  0  0  0
   -3.2640   -1.8979    4.3906 C   0  0  0  0  0  0  0  0  0  0  0  0
   -1.9997   -2.1365    3.8768 C   0  0  0  0  0  0  0  0  0  0  0  0
   -1.4715   -1.2789    2.9097 C   0  0  0  0  0  0  0  0  0  0  0  0
   -2.1934   -0.1686    2.4078 C   0  0  0  0  0  0  0  0  0  0  0  0
   -1.7064    0.7050    1.3820 C   0  0  0  0  0  0  0  0  0  0  0  0
   -0.4469    0.3740    0.6584 C   0  0  0  0  0  0  0  0  0  0  0  0
    0.7710    0.8797    1.1536 C   0  0  0  0  0  0  0  0  0  0  0  0
    1.9955    0.6066    0.5234 C   0  0  0  0  0  0  0  0  0  0  0  0
    3.2062    1.1089    1.0285 C   0  0  0  0  0  0  0  0  0  0  0  0
    4.4333    0.8334    0.4016 C   0  0  0  0  0  0  0  0  0  0  0  0
    5.6449    1.3320    0.9095 C   0  0  0  0  0  0  0  0  0  0  0  0
    6.8724    1.0560    0.2838 C   0  0  0  0  0  0  0  0  0  0  0  0
    8.0832    1.5544    0.7935 C   0  0  0  0  0  0  0  0  0  0  0  0
    9.3105    1.2787    0.1680 C   0  0  0  0  0  0  0  0  0  0  0  0
   10.5213    1.7766    0.6773 C   0  0  0  0  0  0  0  0  0  0  0  0
   11.7326    1.4942    0.0442 C   0  0  0  0  0  0  0  0  0  0  0  0
   11.7492    0.7111   -1.1057 C   0  0  0  0  0  0  0  0  0  0  0  0
   10.5545    0.2089   -1.6239 C   0  0  0  0  0  0  0  0  0  0  0  0
    9.3272    0.4841   -0.9978 C   0  0  0  0  0  0  0  0  0  0  0  0
    8.1161   -0.0141   -1.5064 C   0  0  0  0  0  0  0  0  0  0  0  0
    6.8889    0.2624   -0.8797 C   0  0  0  0  0  0  0  0  0  0  0  0
    5.6771   -0.2357   -1.3877 C   0  0  0  0  0  0  0  0  0  0  0  0
    4.4495    0.0392   -0.7608 C   0  0  0  0  0  0  0  0  0  0  0  0
    3.2377   -0.4618   -1.2666 C   0  0  0  0  0  0  0  0  0  0  0  0
    2.0113   -0.1891   -0.6377 C   0  0  0  0  0  0  0  0  0  0  0  0
    0.8022   -0.6966   -1.1400 C   0  0  0  0  0  0  0  0  0  0  0  0
   -0.4310   -0.4348   -0.5111 C   0  0  0  0  0  0  0  0  0  0  0  0
   -1.6702   -1.0269   -1.0912 C   0  0  0  0  0  0  0  0  0  0  0  0
   -2.4375   -0.2907   -2.0513 C   0  0  0  0  0  0  0  0  0  0  0  0
   -2.0301    0.9451   -2.6099 C   0  0  0  0  0  0  0  0  0  0  0  0
   -2.8266    1.6542   -3.5117 C   0  0  0  0  0  0  0  0  0  0  0  0
   -4.0522    1.1380   -3.9012 C   0  0  0  0  0  0  0  0  0  0  0  0
   -4.4719   -0.0893   -3.3944 C   0  0  0  0  0  0  0  0  0  0  0  0
   -3.6790   -0.8094   -2.4833 C   0  0  0  0  0  0  0  0  0  0  0  0
   -4.1237   -2.0442   -1.9990 C   0  0  0  0  0  0  0  0  0  0  0  0
   -3.3570   -2.8049   -1.1100 C   0  0  0  0  0  0  0  0  0  0  0  0
   -3.8329   -4.0457   -0.6598 C   0  0  0  0  0  0  0  0  0  0  0  0
   -3.0822   -4.8350    0.2251 C   0  0  0  0  0  0  0  0  0  0  0  0
   -3.5488   -6.0662    0.6999 C   0  0  0  0  0  0  0  0  0  0  0  0
   -2.7673   -6.8203    1.5811 C   0  0  0  0  0  0  0  0  0  0  0  0
   -3.2009   -8.0601    2.0847 C   0  0  0  0  0  0  0  0  0  0  0  0
   -2.3951   -8.7840    2.9608 C   0  0  0  0  0  0  0  0  0  0  0  0
   -1.1580   -8.2732    3.3356 C   0  0  0  0  0  0  0  0  0  0  0  0
   -0.7335   -7.0395    2.8321 C   0  0  0  0  0  0  0  0  0  0  0  0
   -1.5159   -6.2976    1.9567 C   0  0  0  0  0  0  0  0  0  0  0  0
   -1.0598   -5.1182    1.5006 N   0  0  0  0  0  0  0  0  0  0  0  0
   -1.8242   -4.3991    0.6581 C   0  0  0  0  0  0  0  0  0  0  0  0
   -1.3664   -3.1718    0.1960 C   0  0  0  0  0  0  0  0  0  0  0  0
   -2.1107   -2.3229   -0.6638 C   0  0  0  0  0  0  0  0  0  0  0  0
   -4.9616    9.0599   -2.6677 H   0  0  0  0  0  0  0  0  0  0  0  0
   -2.6779    8.6432   -3.5539 H   0  0  0  0  0  0  0  0  0  0  0  0
   -1.4059    6.6562   -2.8061 H   0  0  0  0  0  0  0  0  0  0  0  0
   -0.9975    2.7730   -0.3261 H   0  0  0  0  0  0  0  0  0  0  0  0
   -5.4672    3.3479    1.6706 H   0  0  0  0  0  0  0  0  0  0  0  0
   -5.7447    5.4109    0.3300 H   0  0  0  0  0  0  0  0  0  0  0  0
   -5.9528    7.4883   -1.0401 H   0  0  0  0  0  0  0  0  0  0  0  0
   -5.1961    1.3489    2.9825 H   0  0  0  0  0  0  0  0  0  0  0  0
   -4.9766   -0.6204    4.3658 H   0  0  0  0  0  0  0  0  0  0  0  0
   -3.6832   -2.5649    5.1384 H   0  0  0  0  0  0  0  0  0  0  0  0
   -1.4222   -2.9946    4.2120 H   0  0  0  0  0  0  0  0  0  0  0  0
   -0.4721   -1.4999    2.5414 H   0  0  0  0  0  0  0  0  0  0  0  0
    0.7544    1.4963    2.0519 H   0  0  0  0  0  0  0  0  0  0  0  0
    3.1929    1.7232    1.9273 H   0  0  0  0  0  0  0  0  0  0  0  0
    5.6315    1.9459    1.8084 H   0  0  0  0  0  0  0  0  0  0  0  0
    8.0719    2.1678    1.6928 H   0  0  0  0  0  0  0  0  0  0  0  0
   10.5290    2.3907    1.5751 H   0  0  0  0  0  0  0  0  0  0  0  0
   12.6617    1.8863    0.4495 H   0  0  0  0  0  0  0  0  0  0  0  0
   12.6912    0.4901   -1.6005 H   0  0  0  0  0  0  0  0  0  0  0  0
   10.5885   -0.4010   -2.5239 H   0  0  0  0  0  0  0  0  0  0  0  0
    8.1306   -0.6279   -2.4053 H   0  0  0  0  0  0  0  0  0  0  0  0
    5.6887   -0.8490   -2.2871 H   0  0  0  0  0  0  0  0  0  0  0  0
    3.2494   -1.0775   -2.1645 H   0  0  0  0  0  0  0  0  0  0  0  0
    0.8109   -1.3155   -2.0368 H   0  0  0  0  0  0  0  0  0  0  0  0
   -1.0713    1.3829   -2.3405 H   0  0  0  0  0  0  0  0  0  0  0  0
   -2.4857    2.6125   -3.8956 H   0  0  0  0  0  0  0  0  0  0  0  0
   -4.6789    1.6853   -4.5992 H   0  0  0  0  0  0  0  0  0  0  0  0
   -5.4336   -0.4815   -3.7176 H   0  0  0  0  0  0  0  0  0  0  0  0
   -5.0860   -2.4292   -2.3347 H   0  0  0  0  0  0  0  0  0  0  0  0
   -4.8043   -4.4034   -0.9966 H   0  0  0  0  0  0  0  0  0  0  0  0
   -4.5223   -6.4349    0.3866 H   0  0  0  0  0  0  0  0  0  0  0  0
   -4.1678   -8.4662    1.7963 H   0  0  0  0  0  0  0  0  0  0  0  0
   -2.7316   -9.7420    3.3489 H   0  0  0  0  0  0  0  0  0  0  0  0
   -0.5199   -8.8291    4.0179 H   0  0  0  0  0  0  0  0  0  0  0  0
    0.2351   -6.6446    3.1295 H   0  0  0  0  0  0  0  0  0  0  0  0
   -0.3811   -2.8637    0.5396 H   0  0  0  0  0  0  0  0  0  0  0  0
  1  2  4  0
  2  3  4  0
  3  4  4  0
  4  5  4  0
  5  6  4  0
  6  7  4  0
  7  8  4  0
  8  9  4  0
  9 10  4  0
 10 11  4  0
 11 12  4  0
 12 13  4  0
 13 14  4  0
  9 15  4  0
 15 16  4  0
 16 17  4  0
 17 18  4  0
 18 19  4  0
 19 20  4  0
 20 21  4  0
 21 22  4  0
 22 23  1  0
 23 24  4  0
 24 25  4  0
 25 26  4  0
 26 27  4  0
 27 28  4  0
 28 29  4  0
 29 30  4  0
 30 31  4  0
 31 32  4  0
 32 33  4  0
 33 34  4  0
 34 35  4  0
 35 36  4  0
 36 37  4  0
 37 38  4  0
 38 39  4  0
 39 40  4  0
 40 41  4  0
 41 42  4  0
 42 43  4  0
 43 44  4  0
 44 45  1  0
 45 46  4  0
 46 47  4  0
 47 48  4  0
 48 49  4  0
 49 50  4  0
 50 51  4  0
 51 52  4  0
 52 53  4  0
 53 54  4  0
 54 55  4  0
 55 56  4  0
 56 57  4  0
 57 58  4  0
 58 59  4  0
 59 60  4  0
 60 61  4  0
 61 62  4  0
 62 63  4  0
 63 64  4  0
 64 65  4  0
 65 66  4  0
 14  1  4  0
 21 16  4  0
 44 23  4  0
 66 45  4  0
 13  4  4  0
 42 25  4  0
 51 46  4  0
 66 53  4  0
 11  6  4  0
 40 27  4  0
 64 55  4  0
 22  8  4  0
 38 29  4  0
 62 57  4  0
 36 31  4  0
  1 67  1  0
  2 68  1  0
  3 69  1  0
  7 70  1  0
 10 71  1  0
 12 72  1  0
 14 73  1  0
 15 74  1  0
 17 75  1  0
 18 76  1  0
 19 77  1  0
 20 78  1  0
 24 79  1  0
 26 80  1  0
 28 81  1  0
 30 82  1  0
 32 83  1  0
 33 84  1  0
 34 85  1  0
 35 86  1  0
 37 87  1  0
 39 88  1  0
 41 89  1  0
 43 90  1  0
 47 91  1  0
 48 92  1  0
 49 93  1  0
 50 94  1  0
 52 95  1  0
 54 96  1  0
 56 97  1  0
 58 98  1  0
 59 99  1  0
 60100  1  0
 61101  1  0
 65102  1  0
M  END
