
     RDKit          3D

 92106  0  0  0  0  0  0  0  0999 V2000
   -1.5215    8.9311    2.5850 C   0  0  0  0  0  0  0  0  0  0  0  0
   -2.4246    8.5899    1.6058 C   0  0  0  0  0  0  0  0  0  0  0  0
   -2.1957    7.2789    1.0686 C   0  0  0  0  0  0  0  0  0  0  0  0
   -2.8884    6.5607    0.0645 C   0  0  0  0  0  0  0  0  0  0  0  0
   -2.4906    5.2630   -0.3065 C   0  0  0  0  0  0  0  0  0  0  0  0
   -1.3890    4.6696    0.3212 C   0  0  0  0  0  0  0  0  0  0  0  0
   -0.6841    5.3721    1.3127 C   0  0  0  0  0  0  0  0  0  0  0  0
   -1.0998    6.6669    1.6770 C   0  0  0  0  0  0  0  0  0  0  0  0
   -0.3892    7.6887    2.8692 S   0  0  0  0  0  0  0  0  0  0  0  0
   -1.0113    3.3684   -0.0526 C   0  0  0  0  0  0  0  0  0  0  0  0
   -1.7084    2.6136   -1.0237 C   0  0  0  0  0  0  0  0  0  0  0  0
   -2.7871    3.2442   -1.6696 C   0  0  0  0  0  0  0  0  0  0  0  0
   -3.1711    4.5454   -1.3007 C   0  0  0  0  0  0  0  0  0  0  0  0
   -3.4796    2.5773   -2.6878 C   0  0  0  0  0  0  0  0  0  0  0  0
   -3.0914    1.2918   -3.1231 C   0  0  0  0  0  0  0  0  0  0  0  0
   -3.6459    0.4735   -4.1648 C   0  0  0  0  0  0  0  0  0  0  0  0
   -2.9863   -0.7201   -4.3158 C   0  0  0  0  0  0  0  0  0  0  0  0
   -1.6908   -0.8664   -3.2266 S   0  0  0  0  0  0  0  0  0  0  0  0
   -2.0256    0.6641   -2.4730 C   0  0  0  0  0  0  0  0  0  0  0  0
   -1.3555    1.2718   -1.3696 C   0  0  0  0  0  0  0  0  0  0  0  0
   -0.3256    0.5027   -0.6296 C   0  0  0  0  0  0  0  0  0  0  0  0
    0.9721    0.4209   -1.1726 C   0  0  0  0  0  0  0  0  0  0  0  0
    1.9949   -0.3065   -0.5441 C   0  0  0  0  0  0  0  0  0  0  0  0
    3.2834   -0.3855   -1.0979 C   0  0  0  0  0  0  0  0  0  0  0  0
    4.3064   -1.1177   -0.4726 C   0  0  0  0  0  0  0  0  0  0  0  0
    5.5951   -1.1974   -1.0267 C   0  0  0  0  0  0  0  0  0  0  0  0
    6.6181   -1.9313   -0.4028 C   0  0  0  0  0  0  0  0  0  0  0  0
    7.9065   -2.0111   -0.9580 C   0  0  0  0  0  0  0  0  0  0  0  0
    8.9290   -2.7452   -0.3343 C   0  0  0  0  0  0  0  0  0  0  0  0
   10.2172   -2.8253   -0.8890 C   0  0  0  0  0  0  0  0  0  0  0  0
   11.2225   -3.5589   -0.2573 C   0  0  0  0  0  0  0  0  0  0  0  0
   10.9533   -4.2214    0.9363 C   0  0  0  0  0  0  0  0  0  0  0  0
    9.6784   -4.1513    1.4999 C   0  0  0  0  0  0  0  0  0  0  0  0
    8.6559   -3.4170    0.8761 C   0  0  0  0  0  0  0  0  0  0  0  0
    7.3676   -3.3364    1.4303 C   0  0  0  0  0  0  0  0  0  0  0  0
    6.3455   -2.6017    0.8056 C   0  0  0  0  0  0  0  0  0  0  0  0
    5.0570   -2.5209    1.3601 C   0  0  0  0  0  0  0  0  0  0  0  0
    4.0340   -1.7870    0.7358 C   0  0  0  0  0  0  0  0  0  0  0  0
    2.7452   -1.7059    1.2900 C   0  0  0  0  0  0  0  0  0  0  0  0
    1.7228   -0.9733    0.6642 C   0  0  0  0  0  0  0  0  0  0  0  0
    0.4359   -0.8906    1.2192 C   0  0  0  0  0  0  0  0  0  0  0  0
   -0.5966   -0.1575    0.6005 C   0  0  0  0  0  0  0  0  0  0  0  0
   -1.9236   -0.1058    1.2615 C   0  0  0  0  0  0  0  0  0  0  0  0
   -2.1382    0.8115    2.3331 C   0  0  0  0  0  0  0  0  0  0  0  0
   -0.9731    1.8208    3.1369 S   0  0  0  0  0  0  0  0  0  0  0  0
   -2.1444    2.5402    4.1350 C   0  0  0  0  0  0  0  0  0  0  0  0
   -3.3910    2.0083    3.9217 C   0  0  0  0  0  0  0  0  0  0  0  0
   -3.4006    0.9948    2.9038 C   0  0  0  0  0  0  0  0  0  0  0  0
   -4.4739    0.2137    2.4227 C   0  0  0  0  0  0  0  0  0  0  0  0
   -4.2837   -0.7624    1.4364 C   0  0  0  0  0  0  0  0  0  0  0  0
   -5.3673   -1.5571    1.0220 C   0  0  0  0  0  0  0  0  0  0  0  0
   -5.2181   -2.5688    0.0623 C   0  0  0  0  0  0  0  0  0  0  0  0
   -3.9510   -2.7969   -0.4874 C   0  0  0  0  0  0  0  0  0  0  0  0
   -3.7730   -3.8125   -1.4416 C   0  0  0  0  0  0  0  0  0  0  0  0
   -4.8748   -4.5920   -1.8428 C   0  0  0  0  0  0  0  0  0  0  0  0
   -4.8757   -5.8740   -2.9949 S   0  0  0  0  0  0  0  0  0  0  0  0
   -6.5445   -6.1562   -2.7899 C   0  0  0  0  0  0  0  0  0  0  0  0
   -7.1018   -5.2991   -1.8702 C   0  0  0  0  0  0  0  0  0  0  0  0
   -6.1475   -4.3839   -1.3112 C   0  0  0  0  0  0  0  0  0  0  0  0
   -6.3084   -3.3582   -0.3488 C   0  0  0  0  0  0  0  0  0  0  0  0
   -2.8737   -1.9951   -0.0721 C   0  0  0  0  0  0  0  0  0  0  0  0
   -3.0102   -0.9487    0.8689 C   0  0  0  0  0  0  0  0  0  0  0  0
   -1.4722    9.8526    3.1484 H   0  0  0  0  0  0  0  0  0  0  0  0
   -3.2218    9.2480    1.2829 H   0  0  0  0  0  0  0  0  0  0  0  0
   -3.7433    7.0279   -0.4185 H   0  0  0  0  0  0  0  0  0  0  0  0
    0.1720    4.9213    1.8084 H   0  0  0  0  0  0  0  0  0  0  0  0
   -0.1401    2.9298    0.4319 H   0  0  0  0  0  0  0  0  0  0  0  0
   -4.0183    5.0123   -1.8010 H   0  0  0  0  0  0  0  0  0  0  0  0
   -4.3189    3.0603   -3.1837 H   0  0  0  0  0  0  0  0  0  0  0  0
   -4.4933    0.7598   -4.7751 H   0  0  0  0  0  0  0  0  0  0  0  0
   -3.1997   -1.5106   -5.0219 H   0  0  0  0  0  0  0  0  0  0  0  0
    1.1799    0.9341   -2.1113 H   0  0  0  0  0  0  0  0  0  0  0  0
    3.4928    0.1314   -2.0329 H   0  0  0  0  0  0  0  0  0  0  0  0
    5.8055   -0.6787   -1.9605 H   0  0  0  0  0  0  0  0  0  0  0  0
    8.1183   -1.4933   -1.8917 H   0  0  0  0  0  0  0  0  0  0  0  0
   10.4468   -2.3144   -1.8213 H   0  0  0  0  0  0  0  0  0  0  0  0
   12.2146   -3.6121   -0.6980 H   0  0  0  0  0  0  0  0  0  0  0  0
   11.7347   -4.7932    1.4300 H   0  0  0  0  0  0  0  0  0  0  0  0
    9.4876   -4.6760    2.4334 H   0  0  0  0  0  0  0  0  0  0  0  0
    7.1579   -3.8551    2.3641 H   0  0  0  0  0  0  0  0  0  0  0  0
    4.8459   -3.0386    2.2943 H   0  0  0  0  0  0  0  0  0  0  0  0
    2.5335   -2.2223    2.2247 H   0  0  0  0  0  0  0  0  0  0  0  0
    0.2242   -1.4027    2.1575 H   0  0  0  0  0  0  0  0  0  0  0  0
   -1.8653    3.3123    4.8385 H   0  0  0  0  0  0  0  0  0  0  0  0
   -4.2684    2.3259    4.4713 H   0  0  0  0  0  0  0  0  0  0  0  0
   -5.4594    0.3633    2.8589 H   0  0  0  0  0  0  0  0  0  0  0  0
   -6.3498   -1.3872    1.4600 H   0  0  0  0  0  0  0  0  0  0  0  0
   -2.7943   -3.9979   -1.8773 H   0  0  0  0  0  0  0  0  0  0  0  0
   -7.0388   -6.9358   -3.3530 H   0  0  0  0  0  0  0  0  0  0  0  0
   -8.1512   -5.3210   -1.6036 H   0  0  0  0  0  0  0  0  0  0  0  0
   -7.2957   -3.1856    0.0728 H   0  0  0  0  0  0  0  0  0  0  0  0
   -1.8915   -2.1994   -0.4959 H   0  0  0  0  0  0  0  0  0  0  0  0
  1  2  4  0
  2  3  4  0
  3  4  4  0
  4  5  4  0
  5  6  4  0
  6  7  4  0
  7  8  4  0
  8  9  4  0
  6 10  4  0
 10 11  4  0
 11 12  4  0
 12 13  4  0
 12 14  4  0
 14 15  4  0
 15 16  4  0
 16 17  4  0
 17 18  4  0
 18 19  4  0
 19 20  4  0
 20 21  1  0
 21 22  4  0
 22 23  4  0
 23 24  4  0
 24 25  4  0
 25 26  4  0
 26 27  4  0
 27 28  4  0
 28 29  4  0
 29 30  4  0
 30 31  4  0
 31 32  4  0
 32 33  4  0
 33 34  4  0
 34 35  4  0
 35 36  4  0
 36 37  4  0
 37 38  4  0
 38 39  4  0
 39 40  4  0
 40 41  4  0
 41 42  4  0
 42 43  1  0
 43 44  4  0
 44 45  4  0
 45 46  4  0
 46 47  4  0
 47 48  4  0
 48 49  4  0
 49 50  4  0
 50 51  4  0
 51 52  4  0
 52 53  4  0
 53 54  4  0
 54 55  4  0
 55 56  4  0
 56 57  4  0
 57 58  4  0
 58 59  4  0
 59 60  4  0
 53 61  4  0
 61 62  4  0
  9  1  4  0
 20 11  4  0
 42 21  4  0
 62 43  4  0
  8  3  4  0
 19 15  4  0
 40 23  4  0
 48 44  4  0
 62 50  4  0
 13  5  4  0
 38 25  4  0
 60 52  4  0
 36 27  4  0
 59 55  4  0
 34 29  4  0
  1 63  1  0
  2 64  1  0
  4 65  1  0
  7 66  1  0
 10 67  1  0
 13 68  1  0
 14 69  1  0
 16 70  1  0
 17 71  1  0
 22 72  1  0
 24 73  1  0
 26 74  1  0
 28 75  1  0
 30 76  1  0
 31 77  1  0
 32 78  1  0
 33 79  1  0
 35 80  1  0
 37 81  1  0
 39 82  1  0
 41 83  1  0
 46 84  1  0
 47 85  1  0
 49 86  1  0
 51 87  1  0
 54 88  1  0
 57 89  1  0
 58 90  1  0
 60 91  1  0
 61 92  1  0
M  END
