
     RDKit          3D

 92106  0  0  0  0  0  0  0  0999 V2000
   -4.0844   -8.3544   -1.5141 C   0  0  0  0  0  0  0  0  0  0  0  0
   -3.0880   -7.4086   -1.5726 C   0  0  0  0  0  0  0  0  0  0  0  0
   -3.3923   -6.2302   -0.8113 C   0  0  0  0  0  0  0  0  0  0  0  0
   -2.6471   -5.0432   -0.6129 C   0  0  0  0  0  0  0  0  0  0  0  0
   -3.1426   -3.9981    0.1883 C   0  0  0  0  0  0  0  0  0  0  0  0
   -4.3934   -4.1297    0.8039 C   0  0  0  0  0  0  0  0  0  0  0  0
   -4.8658   -3.0823    1.6084 C   0  0  0  0  0  0  0  0  0  0  0  0
   -4.1236   -1.9049    1.8072 C   0  0  0  0  0  0  0  0  0  0  0  0
   -4.6304   -0.8989    2.6383 C   0  0  0  0  0  0  0  0  0  0  0  0
   -3.8746    0.2626    2.8726 C   0  0  0  0  0  0  0  0  0  0  0  0
   -4.3229    1.5795    3.8916 S   0  0  0  0  0  0  0  0  0  0  0  0
   -2.8720    2.4103    3.5812 C   0  0  0  0  0  0  0  0  0  0  0  0
   -2.0596    1.7116    2.7211 C   0  0  0  0  0  0  0  0  0  0  0  0
   -2.6347    0.4687    2.2676 C   0  0  0  0  0  0  0  0  0  0  0  0
   -2.1504   -0.5231    1.3598 C   0  0  0  0  0  0  0  0  0  0  0  0
   -0.8907   -0.2395    0.6348 C   0  0  0  0  0  0  0  0  0  0  0  0
    0.3263   -0.6581    1.2063 C   0  0  0  0  0  0  0  0  0  0  0  0
    1.5559   -0.4505    0.5617 C   0  0  0  0  0  0  0  0  0  0  0  0
    2.7644   -0.8751    1.1377 C   0  0  0  0  0  0  0  0  0  0  0  0
    3.9955   -0.6729    0.4913 C   0  0  0  0  0  0  0  0  0  0  0  0
    5.2045   -1.0984    1.0670 C   0  0  0  0  0  0  0  0  0  0  0  0
    6.4357   -0.8994    0.4196 C   0  0  0  0  0  0  0  0  0  0  0  0
    7.6443   -1.3264    0.9954 C   0  0  0  0  0  0  0  0  0  0  0  0
    8.8749   -1.1294    0.3472 C   0  0  0  0  0  0  0  0  0  0  0  0
   10.0835   -1.5566    0.9221 C   0  0  0  0  0  0  0  0  0  0  0  0
   11.2980   -1.3541    0.2648 C   0  0  0  0  0  0  0  0  0  0  0  0
   11.3201   -0.7226   -0.9747 C   0  0  0  0  0  0  0  0  0  0  0  0
   10.1277   -0.2923   -1.5588 C   0  0  0  0  0  0  0  0  0  0  0  0
    8.8973   -0.4884   -0.9097 C   0  0  0  0  0  0  0  0  0  0  0  0
    7.6885   -0.0609   -1.4838 C   0  0  0  0  0  0  0  0  0  0  0  0
    6.4582   -0.2586   -0.8344 C   0  0  0  0  0  0  0  0  0  0  0  0
    5.2493    0.1686   -1.4091 C   0  0  0  0  0  0  0  0  0  0  0  0
    4.0180   -0.0306   -0.7615 C   0  0  0  0  0  0  0  0  0  0  0  0
    2.8087    0.3961   -1.3362 C   0  0  0  0  0  0  0  0  0  0  0  0
    1.5781    0.1935   -0.6896 C   0  0  0  0  0  0  0  0  0  0  0  0
    0.3704    0.6209   -1.2639 C   0  0  0  0  0  0  0  0  0  0  0  0
   -0.8674    0.4204   -0.6225 C   0  0  0  0  0  0  0  0  0  0  0  0
   -2.0973    0.9224   -1.2760 C   0  0  0  0  0  0  0  0  0  0  0  0
   -2.7955    0.0352   -2.1518 C   0  0  0  0  0  0  0  0  0  0  0  0
   -2.4647   -1.2813   -2.6404 C   0  0  0  0  0  0  0  0  0  0  0  0
   -3.4319   -1.8238   -3.4517 C   0  0  0  0  0  0  0  0  0  0  0  0
   -4.7425   -0.7617   -3.6660 S   0  0  0  0  0  0  0  0  0  0  0  0
   -4.0188    0.4516   -2.6771 C   0  0  0  0  0  0  0  0  0  0  0  0
   -4.5541    1.7201   -2.3940 C   0  0  0  0  0  0  0  0  0  0  0  0
   -3.8342    2.6191   -1.5979 C   0  0  0  0  0  0  0  0  0  0  0  0
   -4.3553    3.9009   -1.3485 C   0  0  0  0  0  0  0  0  0  0  0  0
   -3.6631    4.8461   -0.5770 C   0  0  0  0  0  0  0  0  0  0  0  0
   -2.4128    4.5024   -0.0487 C   0  0  0  0  0  0  0  0  0  0  0  0
   -1.6982    5.4408    0.7184 C   0  0  0  0  0  0  0  0  0  0  0  0
   -2.2235    6.7304    0.9720 C   0  0  0  0  0  0  0  0  0  0  0  0
   -1.6803    7.8303    1.7175 C   0  0  0  0  0  0  0  0  0  0  0  0
   -2.5087    8.9278    1.7303 C   0  0  0  0  0  0  0  0  0  0  0  0
   -3.9435    8.6537    0.8511 S   0  0  0  0  0  0  0  0  0  0  0  0
   -3.4722    7.0479    0.4377 C   0  0  0  0  0  0  0  0  0  0  0  0
   -4.2000    6.1218   -0.3349 C   0  0  0  0  0  0  0  0  0  0  0  0
   -1.8983    3.2185   -0.2956 C   0  0  0  0  0  0  0  0  0  0  0  0
   -2.5947    2.2445   -1.0496 C   0  0  0  0  0  0  0  0  0  0  0  0
   -2.8776   -1.7418    1.1755 C   0  0  0  0  0  0  0  0  0  0  0  0
   -2.4065   -2.8173    0.3853 C   0  0  0  0  0  0  0  0  0  0  0  0
   -5.1484   -5.2998    0.6156 C   0  0  0  0  0  0  0  0  0  0  0  0
   -4.6369   -6.3357   -0.1903 C   0  0  0  0  0  0  0  0  0  0  0  0
   -5.3926   -7.8432   -0.5477 S   0  0  0  0  0  0  0  0  0  0  0  0
   -4.1065   -9.3233   -1.9938 H   0  0  0  0  0  0  0  0  0  0  0  0
   -2.1743   -7.5478   -2.1372 H   0  0  0  0  0  0  0  0  0  0  0  0
   -1.6755   -4.9483   -1.0922 H   0  0  0  0  0  0  0  0  0  0  0  0
   -5.8347   -3.1882    2.0954 H   0  0  0  0  0  0  0  0  0  0  0  0
   -5.5951   -1.0155    3.1264 H   0  0  0  0  0  0  0  0  0  0  0  0
   -2.6798    3.3697    4.0412 H   0  0  0  0  0  0  0  0  0  0  0  0
   -1.0882    2.0773    2.4139 H   0  0  0  0  0  0  0  0  0  0  0  0
    0.3047   -1.1623    2.1724 H   0  0  0  0  0  0  0  0  0  0  0  0
    2.7471   -1.3729    2.1060 H   0  0  0  0  0  0  0  0  0  0  0  0
    5.1877   -1.5947    2.0359 H   0  0  0  0  0  0  0  0  0  0  0  0
    7.6283   -1.8215    1.9648 H   0  0  0  0  0  0  0  0  0  0  0  0
   10.0873   -2.0521    1.8904 H   0  0  0  0  0  0  0  0  0  0  0  0
   12.2253   -1.6898    0.7216 H   0  0  0  0  0  0  0  0  0  0  0  0
   12.2646   -0.5641   -1.4884 H   0  0  0  0  0  0  0  0  0  0  0  0
   10.1664    0.1991   -2.5285 H   0  0  0  0  0  0  0  0  0  0  0  0
    7.7066    0.4336   -2.4534 H   0  0  0  0  0  0  0  0  0  0  0  0
    5.2669    0.6644   -2.3781 H   0  0  0  0  0  0  0  0  0  0  0  0
    2.8262    0.8939   -2.3045 H   0  0  0  0  0  0  0  0  0  0  0  0
    0.3840    1.1262   -2.2295 H   0  0  0  0  0  0  0  0  0  0  0  0
   -1.5502   -1.8060   -2.3954 H   0  0  0  0  0  0  0  0  0  0  0  0
   -3.4286   -2.7945   -3.9279 H   0  0  0  0  0  0  0  0  0  0  0  0
   -5.5153    2.0008   -2.8182 H   0  0  0  0  0  0  0  0  0  0  0  0
   -5.3243    4.1706   -1.7668 H   0  0  0  0  0  0  0  0  0  0  0  0
   -0.7247    5.1820    1.1286 H   0  0  0  0  0  0  0  0  0  0  0  0
   -0.7215    7.8079    2.2208 H   0  0  0  0  0  0  0  0  0  0  0  0
   -2.3396    9.8795    2.2152 H   0  0  0  0  0  0  0  0  0  0  0  0
   -5.1699    6.4023   -0.7374 H   0  0  0  0  0  0  0  0  0  0  0  0
   -0.9209    2.9717    0.1152 H   0  0  0  0  0  0  0  0  0  0  0  0
   -1.4319   -2.7369   -0.0929 H   0  0  0  0  0  0  0  0  0  0  0  0
   -6.1213   -5.4148    1.0862 H   0  0  0  0  0  0  0  0  0  0  0  0
  1  2  4  0
  2  3  4  0
  3  4  4  0
  4  5  4  0
  5  6  4  0
  6  7  4  0
  7  8  4  0
  8  9  4  0
  9 10  4  0
 10 11  4  0
 11 12  4  0
 12 13  4  0
 13 14  4  0
 14 15  4  0
 15 16  1  0
 16 17  4  0
 17 18  4  0
 18 19  4  0
 19 20  4  0
 20 21  4  0
 21 22  4  0
 22 23  4  0
 23 24  4  0
 24 25  4  0
 25 26  4  0
 26 27  4  0
 27 28  4  0
 28 29  4  0
 29 30  4  0
 30 31  4  0
 31 32  4  0
 32 33  4  0
 33 34  4  0
 34 35  4  0
 35 36  4  0
 36 37  4  0
 37 38  1  0
 38 39  4  0
 39 40  4  0
 40 41  4  0
 41 42  4  0
 42 43  4  0
 43 44  4  0
 44 45  4  0
 45 46  4  0
 46 47  4  0
 47 48  4  0
 48 49  4  0
 49 50  4  0
 50 51  4  0
 51 52  4  0
 52 53  4  0
 53 54  4  0
 54 55  4  0
 48 56  4  0
 56 57  4  0
 15 58  4  0
 58 59  4  0
  6 60  4  0
 60 61  4  0
 61 62  4  0
 62  1  4  0
 61  3  4  0
 59  5  4  0
 58  8  4  0
 14 10  4  0
 37 16  4  0
 57 38  4  0
 35 18  4  0
 43 39  4  0
 57 45  4  0
 33 20  4  0
 55 47  4  0
 31 22  4  0
 54 50  4  0
 29 24  4  0
  1 63  1  0
  2 64  1  0
  4 65  1  0
  7 66  1  0
  9 67  1  0
 12 68  1  0
 13 69  1  0
 17 70  1  0
 19 71  1  0
 21 72  1  0
 23 73  1  0
 25 74  1  0
 26 75  1  0
 27 76  1  0
 28 77  1  0
 30 78  1  0
 32 79  1  0
 34 80  1  0
 36 81  1  0
 40 82  1  0
 41 83  1  0
 44 84  1  0
 46 85  1  0
 49 86  1  0
 51 87  1  0
 52 88  1  0
 55 89  1  0
 56 90  1  0
 59 91  1  0
 60 92  1  0
M  END
