
     RDKit          3D

 92106  0  0  0  0  0  0  0  0999 V2000
   -3.4456   -8.3666    2.2415 C   0  0  0  0  0  0  0  0  0  0  0  0
   -2.4870   -7.3842    2.1583 C   0  0  0  0  0  0  0  0  0  0  0  0
   -2.8878   -6.2832    1.3291 C   0  0  0  0  0  0  0  0  0  0  0  0
   -2.2059   -5.0910    0.9883 C   0  0  0  0  0  0  0  0  0  0  0  0
   -2.7964   -4.1303    0.1470 C   0  0  0  0  0  0  0  0  0  0  0  0
   -2.1252   -2.9417   -0.1853 C   0  0  0  0  0  0  0  0  0  0  0  0
   -2.6943   -1.9457   -1.0125 C   0  0  0  0  0  0  0  0  0  0  0  0
   -3.9685   -2.2034   -1.5489 C   0  0  0  0  0  0  0  0  0  0  0  0
   -4.6454   -3.3899   -1.2160 C   0  0  0  0  0  0  0  0  0  0  0  0
   -4.0784   -4.3546   -0.3698 C   0  0  0  0  0  0  0  0  0  0  0  0
   -4.7700   -5.5332   -0.0424 C   0  0  0  0  0  0  0  0  0  0  0  0
   -4.1650   -6.4822    0.8047 C   0  0  0  0  0  0  0  0  0  0  0  0
   -4.8336   -7.9818    1.3294 S   0  0  0  0  0  0  0  0  0  0  0  0
   -4.5683   -1.2822   -2.4161 C   0  0  0  0  0  0  0  0  0  0  0  0
   -3.8799   -0.1121   -2.7797 C   0  0  0  0  0  0  0  0  0  0  0  0
   -4.4455    1.1078   -3.8594 S   0  0  0  0  0  0  0  0  0  0  0  0
   -3.0192    2.0192   -3.6962 C   0  0  0  0  0  0  0  0  0  0  0  0
   -2.1292    1.4221   -2.8364 C   0  0  0  0  0  0  0  0  0  0  0  0
   -2.6174    0.1878   -2.2683 C   0  0  0  0  0  0  0  0  0  0  0  0
   -2.0365   -0.7150   -1.3238 C   0  0  0  0  0  0  0  0  0  0  0  0
   -0.7592   -0.3155   -0.6896 C   0  0  0  0  0  0  0  0  0  0  0  0
    0.4461   -0.5836   -1.3666 C   0  0  0  0  0  0  0  0  0  0  0  0
    1.6923   -0.2355   -0.8222 C   0  0  0  0  0  0  0  0  0  0  0  0
    2.8902   -0.5124   -1.5009 C   0  0  0  0  0  0  0  0  0  0  0  0
    4.1382   -0.1680   -0.9548 C   0  0  0  0  0  0  0  0  0  0  0  0
    5.3373   -0.4495   -1.6306 C   0  0  0  0  0  0  0  0  0  0  0  0
    6.5853   -0.1067   -1.0836 C   0  0  0  0  0  0  0  0  0  0  0  0
    7.7839   -0.3906   -1.7595 C   0  0  0  0  0  0  0  0  0  0  0  0
    9.0318   -0.0485   -1.2129 C   0  0  0  0  0  0  0  0  0  0  0  0
   10.2303   -0.3326   -1.8883 C   0  0  0  0  0  0  0  0  0  0  0  0
   11.4628    0.0137   -1.3323 C   0  0  0  0  0  0  0  0  0  0  0  0
   11.5130    0.6480   -0.0950 C   0  0  0  0  0  0  0  0  0  0  0  0
   10.3308    0.9369    0.5883 C   0  0  0  0  0  0  0  0  0  0  0  0
    9.0826    0.5946    0.0420 C   0  0  0  0  0  0  0  0  0  0  0  0
    7.8836    0.8778    0.7169 C   0  0  0  0  0  0  0  0  0  0  0  0
    6.6357    0.5346    0.1694 C   0  0  0  0  0  0  0  0  0  0  0  0
    5.4364    0.8163    0.8449 C   0  0  0  0  0  0  0  0  0  0  0  0
    4.1885    0.4720    0.2985 C   0  0  0  0  0  0  0  0  0  0  0  0
    2.9899    0.7506    0.9760 C   0  0  0  0  0  0  0  0  0  0  0  0
    1.7430    0.4025    0.4315 C   0  0  0  0  0  0  0  0  0  0  0  0
    0.5469    0.6740    1.1135 C   0  0  0  0  0  0  0  0  0  0  0  0
   -0.7074    0.3216    0.5792 C   0  0  0  0  0  0  0  0  0  0  0  0
   -1.9260    0.6218    1.3654 C   0  0  0  0  0  0  0  0  0  0  0  0
   -2.3103   -0.3194    2.3713 C   0  0  0  0  0  0  0  0  0  0  0  0
   -1.6571   -1.5069    2.8691 C   0  0  0  0  0  0  0  0  0  0  0  0
   -2.3815   -2.1680    3.8315 C   0  0  0  0  0  0  0  0  0  0  0  0
   -3.8449   -1.3731    4.1752 S   0  0  0  0  0  0  0  0  0  0  0  0
   -3.5201   -0.1202    3.0360 C   0  0  0  0  0  0  0  0  0  0  0  0
   -4.3426    0.9859    2.7626 C   0  0  0  0  0  0  0  0  0  0  0  0
   -3.9334    1.9453    1.8287 C   0  0  0  0  0  0  0  0  0  0  0  0
   -2.7170    1.7911    1.1399 C   0  0  0  0  0  0  0  0  0  0  0  0
   -2.3393    2.8245    0.2511 C   0  0  0  0  0  0  0  0  0  0  0  0
   -3.1472    3.9467    0.0015 C   0  0  0  0  0  0  0  0  0  0  0  0
   -2.7511    4.9445   -0.9080 C   0  0  0  0  0  0  0  0  0  0  0  0
   -3.5736    6.0666   -1.1675 C   0  0  0  0  0  0  0  0  0  0  0  0
   -3.3780    7.1859   -2.0444 C   0  0  0  0  0  0  0  0  0  0  0  0
   -4.4244    8.0775   -2.0140 C   0  0  0  0  0  0  0  0  0  0  0  0
   -5.6499    7.5856   -0.9359 S   0  0  0  0  0  0  0  0  0  0  0  0
   -4.7901    6.1594   -0.4913 C   0  0  0  0  0  0  0  0  0  0  0  0
   -5.1999    5.1734    0.4272 C   0  0  0  0  0  0  0  0  0  0  0  0
   -4.3718    4.0649    0.6705 C   0  0  0  0  0  0  0  0  0  0  0  0
   -4.7452    3.0658    1.5814 C   0  0  0  0  0  0  0  0  0  0  0  0
   -3.3968   -9.2940    2.7952 H   0  0  0  0  0  0  0  0  0  0  0  0
   -1.5334   -7.4458    2.6680 H   0  0  0  0  0  0  0  0  0  0  0  0
   -1.2104   -4.9226    1.3921 H   0  0  0  0  0  0  0  0  0  0  0  0
   -1.1240   -2.7901    0.2135 H   0  0  0  0  0  0  0  0  0  0  0  0
   -5.6385   -3.5680   -1.6270 H   0  0  0  0  0  0  0  0  0  0  0  0
   -5.7664   -5.7198   -0.4341 H   0  0  0  0  0  0  0  0  0  0  0  0
   -5.5549   -1.4724   -2.8320 H   0  0  0  0  0  0  0  0  0  0  0  0
   -2.8993    2.9494   -4.2339 H   0  0  0  0  0  0  0  0  0  0  0  0
   -1.1625    1.8536   -2.6087 H   0  0  0  0  0  0  0  0  0  0  0  0
    0.4031   -1.0784   -2.3367 H   0  0  0  0  0  0  0  0  0  0  0  0
    2.8514   -1.0066   -2.4704 H   0  0  0  0  0  0  0  0  0  0  0  0
    5.2996   -0.9457   -2.5989 H   0  0  0  0  0  0  0  0  0  0  0  0
    7.7462   -0.8867   -2.7276 H   0  0  0  0  0  0  0  0  0  0  0  0
   10.2118   -0.8275   -2.8566 H   0  0  0  0  0  0  0  0  0  0  0  0
   12.3821   -0.2122   -1.8662 H   0  0  0  0  0  0  0  0  0  0  0  0
   12.4716    0.9187    0.3397 H   0  0  0  0  0  0  0  0  0  0  0  0
   10.3912    1.4336    1.5542 H   0  0  0  0  0  0  0  0  0  0  0  0
    7.9237    1.3735    1.6852 H   0  0  0  0  0  0  0  0  0  0  0  0
    5.4747    1.3107    1.8140 H   0  0  0  0  0  0  0  0  0  0  0  0
    3.0289    1.2449    1.9454 H   0  0  0  0  0  0  0  0  0  0  0  0
    0.5828    1.1659    2.0854 H   0  0  0  0  0  0  0  0  0  0  0  0
   -0.6948   -1.8608    2.5206 H   0  0  0  0  0  0  0  0  0  0  0  0
   -2.1199   -3.0819    4.3465 H   0  0  0  0  0  0  0  0  0  0  0  0
   -5.2831    1.0972    3.2971 H   0  0  0  0  0  0  0  0  0  0  0  0
   -1.3843    2.7549   -0.2660 H   0  0  0  0  0  0  0  0  0  0  0  0
   -1.8012    4.8587   -1.4303 H   0  0  0  0  0  0  0  0  0  0  0  0
   -2.5036    7.3246   -2.6683 H   0  0  0  0  0  0  0  0  0  0  0  0
   -4.5279    8.9966   -2.5741 H   0  0  0  0  0  0  0  0  0  0  0  0
   -6.1536    5.2773    0.9379 H   0  0  0  0  0  0  0  0  0  0  0  0
   -5.6925    3.1627    2.1106 H   0  0  0  0  0  0  0  0  0  0  0  0
  1  2  4  0
  2  3  4  0
  3  4  4  0
  4  5  4  0
  5  6  4  0
  6  7  4  0
  7  8  4  0
  8  9  4  0
  9 10  4  0
 10 11  4  0
 11 12  4  0
 12 13  4  0
  8 14  4  0
 14 15  4  0
 15 16  4  0
 16 17  4  0
 17 18  4  0
 18 19  4  0
 19 20  4  0
 20 21  1  0
 21 22  4  0
 22 23  4  0
 23 24  4  0
 24 25  4  0
 25 26  4  0
 26 27  4  0
 27 28  4  0
 28 29  4  0
 29 30  4  0
 30 31  4  0
 31 32  4  0
 32 33  4  0
 33 34  4  0
 34 35  4  0
 35 36  4  0
 36 37  4  0
 37 38  4  0
 38 39  4  0
 39 40  4  0
 40 41  4  0
 41 42  4  0
 42 43  1  0
 43 44  4  0
 44 45  4  0
 45 46  4  0
 46 47  4  0
 47 48  4  0
 48 49  4  0
 49 50  4  0
 50 51  4  0
 51 52  4  0
 52 53  4  0
 53 54  4  0
 54 55  4  0
 55 56  4  0
 56 57  4  0
 57 58  4  0
 58 59  4  0
 59 60  4  0
 60 61  4  0
 61 62  4  0
 13  1  4  0
 19 15  4  0
 42 21  4  0
 51 43  4  0
 61 53  4  0
 12  3  4  0
 40 23  4  0
 48 44  4  0
 62 50  4  0
 10  5  4  0
 38 25  4  0
 59 55  4  0
 20  7  4  0
 36 27  4  0
 34 29  4  0
  1 63  1  0
  2 64  1  0
  4 65  1  0
  6 66  1  0
  9 67  1  0
 11 68  1  0
 14 69  1  0
 17 70  1  0
 18 71  1  0
 22 72  1  0
 24 73  1  0
 26 74  1  0
 28 75  1  0
 30 76  1  0
 31 77  1  0
 32 78  1  0
 33 79  1  0
 35 80  1  0
 37 81  1  0
 39 82  1  0
 41 83  1  0
 45 84  1  0
 46 85  1  0
 49 86  1  0
 52 87  1  0
 54 88  1  0
 56 89  1  0
 57 90  1  0
 60 91  1  0
 62 92  1  0
M  END
