
     RDKit          3D

 86 98  0  0  0  0  0  0  0  0999 V2000
   -2.6345    9.5593    1.0939 C   0  0  0  0  0  0  0  0  0  0  0  0
   -3.1051    8.6793    0.1183 C   0  0  0  0  0  0  0  0  0  0  0  0
   -2.6012    7.3711    0.0245 C   0  0  0  0  0  0  0  0  0  0  0  0
   -3.0676    6.4774   -0.9545 C   0  0  0  0  0  0  0  0  0  0  0  0
   -2.5741    5.1702   -1.0599 C   0  0  0  0  0  0  0  0  0  0  0  0
   -3.0965    4.3304   -2.0756 C   0  0  0  0  0  0  0  0  0  0  0  0
   -2.5284    3.0572   -2.0745 C   0  0  0  0  0  0  0  0  0  0  0  0
   -2.8823    2.0859   -2.9759 C   0  0  0  0  0  0  0  0  0  0  0  0
   -1.9877    0.6434   -2.7139 S   0  0  0  0  0  0  0  0  0  0  0  0
   -1.1444    1.3103   -1.3632 C   0  0  0  0  0  0  0  0  0  0  0  0
   -0.1761    0.4658   -0.6542 C   0  0  0  0  0  0  0  0  0  0  0  0
    1.1314    0.3780   -1.1626 C   0  0  0  0  0  0  0  0  0  0  0  0
    2.1137   -0.3983   -0.5266 C   0  0  0  0  0  0  0  0  0  0  0  0
    3.4207   -0.4851   -1.0340 C   0  0  0  0  0  0  0  0  0  0  0  0
    4.4041   -1.2605   -0.3970 C   0  0  0  0  0  0  0  0  0  0  0  0
    5.7119   -1.3461   -0.9032 C   0  0  0  0  0  0  0  0  0  0  0  0
    6.6961   -2.1208   -0.2662 C   0  0  0  0  0  0  0  0  0  0  0  0
    8.0041   -2.2054   -0.7729 C   0  0  0  0  0  0  0  0  0  0  0  0
    8.9879   -2.9797   -0.1359 C   0  0  0  0  0  0  0  0  0  0  0  0
   10.2955   -3.0646   -0.6421 C   0  0  0  0  0  0  0  0  0  0  0  0
   11.2621   -3.8383    0.0022 C   0  0  0  0  0  0  0  0  0  0  0  0
   10.9342   -4.5366    1.1600 C   0  0  0  0  0  0  0  0  0  0  0  0
    9.6392   -4.4624    1.6753 C   0  0  0  0  0  0  0  0  0  0  0  0
    8.6553   -3.6879    1.0382 C   0  0  0  0  0  0  0  0  0  0  0  0
    7.3474   -3.6026    1.5438 C   0  0  0  0  0  0  0  0  0  0  0  0
    6.3640   -2.8277    0.9058 C   0  0  0  0  0  0  0  0  0  0  0  0
    5.0560   -2.7423    1.4117 C   0  0  0  0  0  0  0  0  0  0  0  0
    4.0722   -1.9672    0.7749 C   0  0  0  0  0  0  0  0  0  0  0  0
    2.7647   -1.8810    1.2818 C   0  0  0  0  0  0  0  0  0  0  0  0
    1.7819   -1.1044    0.6460 C   0  0  0  0  0  0  0  0  0  0  0  0
    0.4764   -1.0159    1.1553 C   0  0  0  0  0  0  0  0  0  0  0  0
   -0.5061   -0.2351    0.5221 C   0  0  0  0  0  0  0  0  0  0  0  0
   -1.8511   -0.1971    1.1081 C   0  0  0  0  0  0  0  0  0  0  0  0
   -2.9833   -0.9289    0.8159 C   0  0  0  0  0  0  0  0  0  0  0  0
   -3.0405   -1.9224   -0.1667 C   0  0  0  0  0  0  0  0  0  0  0  0
   -4.3213   -2.5173   -0.2873 C   0  0  0  0  0  0  0  0  0  0  0  0
   -4.5014   -3.5196   -1.2490 C   0  0  0  0  0  0  0  0  0  0  0  0
   -5.7385   -4.1593   -1.4321 C   0  0  0  0  0  0  0  0  0  0  0  0
   -5.9041   -5.1623   -2.4016 C   0  0  0  0  0  0  0  0  0  0  0  0
   -7.1372   -5.7921   -2.5759 C   0  0  0  0  0  0  0  0  0  0  0  0
   -8.2207   -5.4271   -1.7836 C   0  0  0  0  0  0  0  0  0  0  0  0
   -8.0719   -4.4318   -0.8165 C   0  0  0  0  0  0  0  0  0  0  0  0
   -6.8369   -3.7885   -0.6290 C   0  0  0  0  0  0  0  0  0  0  0  0
   -6.6764   -2.7840    0.3404 C   0  0  0  0  0  0  0  0  0  0  0  0
   -5.4511   -2.1334    0.5372 C   0  0  0  0  0  0  0  0  0  0  0  0
   -5.3717   -1.1280    1.5334 C   0  0  0  0  0  0  0  0  0  0  0  0
   -4.1038   -0.5559    1.6287 C   0  0  0  0  0  0  0  0  0  0  0  0
   -3.8024    0.4344    2.5285 C   0  0  0  0  0  0  0  0  0  0  0  0
   -2.1564    0.9071    2.3997 S   0  0  0  0  0  0  0  0  0  0  0  0
   -1.5216    2.6203   -1.1522 C   0  0  0  0  0  0  0  0  0  0  0  0
   -0.9890    3.4358   -0.1485 C   0  0  0  0  0  0  0  0  0  0  0  0
   -1.5521    4.7365   -0.1264 C   0  0  0  0  0  0  0  0  0  0  0  0
   -1.1002    5.6418    0.8425 C   0  0  0  0  0  0  0  0  0  0  0  0
   -1.6075    6.9490    0.9319 C   0  0  0  0  0  0  0  0  0  0  0  0
   -1.1441    7.8466    1.9086 C   0  0  0  0  0  0  0  0  0  0  0  0
   -1.6542    9.1433    1.9887 C   0  0  0  0  0  0  0  0  0  0  0  0
   -3.0338   10.5684    1.1537 H   0  0  0  0  0  0  0  0  0  0  0  0
   -3.8718    9.0240   -0.5722 H   0  0  0  0  0  0  0  0  0  0  0  0
   -3.8353    6.8157   -1.6491 H   0  0  0  0  0  0  0  0  0  0  0  0
   -3.8577    4.6506   -2.7754 H   0  0  0  0  0  0  0  0  0  0  0  0
   -3.6065    2.1334   -3.7773 H   0  0  0  0  0  0  0  0  0  0  0  0
    1.3834    0.9281   -2.0685 H   0  0  0  0  0  0  0  0  0  0  0  0
    3.6777    0.0608   -1.9404 H   0  0  0  0  0  0  0  0  0  0  0  0
    5.9693   -0.7998   -1.8091 H   0  0  0  0  0  0  0  0  0  0  0  0
    8.2620   -1.6593   -1.6786 H   0  0  0  0  0  0  0  0  0  0  0  0
   10.5710   -2.5259   -1.5460 H   0  0  0  0  0  0  0  0  0  0  0  0
   12.2699   -3.8946   -0.4008 H   0  0  0  0  0  0  0  0  0  0  0  0
   11.6852   -5.1397    1.6634 H   0  0  0  0  0  0  0  0  0  0  0  0
    9.4023   -5.0155    2.5814 H   0  0  0  0  0  0  0  0  0  0  0  0
    7.0917   -4.1491    2.4498 H   0  0  0  0  0  0  0  0  0  0  0  0
    4.7992   -3.2890    2.3175 H   0  0  0  0  0  0  0  0  0  0  0  0
    2.5077   -2.4273    2.1880 H   0  0  0  0  0  0  0  0  0  0  0  0
    0.2142   -1.5617    2.0609 H   0  0  0  0  0  0  0  0  0  0  0  0
   -2.1986   -2.2100   -0.7842 H   0  0  0  0  0  0  0  0  0  0  0  0
   -3.6614   -3.8107   -1.8784 H   0  0  0  0  0  0  0  0  0  0  0  0
   -5.0688   -5.4611   -3.0313 H   0  0  0  0  0  0  0  0  0  0  0  0
   -7.2500   -6.5664   -3.3302 H   0  0  0  0  0  0  0  0  0  0  0  0
   -9.1824   -5.9155   -1.9172 H   0  0  0  0  0  0  0  0  0  0  0  0
   -8.9316   -4.1603   -0.2079 H   0  0  0  0  0  0  0  0  0  0  0  0
   -7.5331   -2.5058    0.9528 H   0  0  0  0  0  0  0  0  0  0  0  0
   -6.2123   -0.8374    2.1504 H   0  0  0  0  0  0  0  0  0  0  0  0
   -4.4438    0.9082    3.2586 H   0  0  0  0  0  0  0  0  0  0  0  0
   -0.2274    3.1132    0.5507 H   0  0  0  0  0  0  0  0  0  0  0  0
   -0.3338    5.3268    1.5497 H   0  0  0  0  0  0  0  0  0  0  0  0
   -0.3780    7.5400    2.6174 H   0  0  0  0  0  0  0  0  0  0  0  0
   -1.2853    9.8268    2.7491 H   0  0  0  0  0  0  0  0  0  0  0  0
  1  2  4  0
  2  3  4  0
  3  4  4  0
  4  5  4  0
  5  6  4  0
  6  7  4  0
  7  8  4  0
  8  9  4  0
  9 10  4  0
 10 11  1  0
 11 12  4  0
 12 13  4  0
 13 14  4  0
 14 15  4  0
 15 16  4  0
 16 17  4  0
 17 18  4  0
 18 19  4  0
 19 20  4  0
 20 21  4  0
 21 22  4  0
 22 23  4  0
 23 24  4  0
 24 25  4  0
 25 26  4  0
 26 27  4  0
 27 28  4  0
 28 29  4  0
 29 30  4  0
 30 31  4  0
 31 32  4  0
 32 33  1  0
 33 34  4  0
 34 35  4  0
 35 36  4  0
 36 37  4  0
 37 38  4  0
 38 39  4  0
 39 40  4  0
 40 41  4  0
 41 42  4  0
 42 43  4  0
 43 44  4  0
 44 45  4  0
 45 46  4  0
 46 47  4  0
 47 48  4  0
 48 49  4  0
 10 50  4  0
 50 51  4  0
 51 52  4  0
 52 53  4  0
 53 54  4  0
 54 55  4  0
 55 56  4  0
 56  1  4  0
 54  3  4  0
 52  5  4  0
 50  7  4  0
 32 11  4  0
 49 33  4  0
 30 13  4  0
 47 34  4  0
 28 15  4  0
 45 36  4  0
 26 17  4  0
 43 38  4  0
 24 19  4  0
  1 57  1  0
  2 58  1  0
  4 59  1  0
  6 60  1  0
  8 61  1  0
 12 62  1  0
 14 63  1  0
 16 64  1  0
 18 65  1  0
 20 66  1  0
 21 67  1  0
 22 68  1  0
 23 69  1  0
 25 70  1  0
 27 71  1  0
 29 72  1  0
 31 73  1  0
 35 74  1  0
 37 75  1  0
 39 76  1  0
 40 77  1  0
 41 78  1  0
 42 79  1  0
 44 80  1  0
 46 81  1  0
 48 82  1  0
 51 83  1  0
 53 84  1  0
 55 85  1  0
 56 86  1  0
M  END
