
     RDKit          3D

 86 98  0  0  0  0  0  0  0  0999 V2000
   -3.7531   -0.1949   -3.2864 C   0  0  0  0  0  0  0  0  0  0  0  0
   -4.5687   -1.2616   -2.9222 C   0  0  0  0  0  0  0  0  0  0  0  0
   -4.2558   -2.0671   -1.8167 C   0  0  0  0  0  0  0  0  0  0  0  0
   -5.0985   -3.1368   -1.4679 C   0  0  0  0  0  0  0  0  0  0  0  0
   -4.8362   -3.9674   -0.3728 C   0  0  0  0  0  0  0  0  0  0  0  0
   -5.7428   -5.0212   -0.0892 C   0  0  0  0  0  0  0  0  0  0  0  0
   -5.3662   -5.7703    1.0240 C   0  0  0  0  0  0  0  0  0  0  0  0
   -6.0896   -6.8403    1.4886 C   0  0  0  0  0  0  0  0  0  0  0  0
   -5.3448   -7.5370    2.8760 S   0  0  0  0  0  0  0  0  0  0  0  0
   -4.0532   -6.3985    2.8473 C   0  0  0  0  0  0  0  0  0  0  0  0
   -4.1953   -5.5161    1.8055 C   0  0  0  0  0  0  0  0  0  0  0  0
   -3.2900   -4.4884    1.5482 C   0  0  0  0  0  0  0  0  0  0  0  0
   -3.6515   -3.7093    0.4186 C   0  0  0  0  0  0  0  0  0  0  0  0
   -2.8245   -2.6389    0.0524 C   0  0  0  0  0  0  0  0  0  0  0  0
   -3.0955   -1.7972   -1.0542 C   0  0  0  0  0  0  0  0  0  0  0  0
   -2.2660   -0.6974   -1.4268 C   0  0  0  0  0  0  0  0  0  0  0  0
   -1.0470   -0.3385   -0.6711 C   0  0  0  0  0  0  0  0  0  0  0  0
    0.1554   -1.0113   -0.9633 C   0  0  0  0  0  0  0  0  0  0  0  0
    1.3466   -0.7289   -0.2760 C   0  0  0  0  0  0  0  0  0  0  0  0
    2.5428   -1.4032   -0.5728 C   0  0  0  0  0  0  0  0  0  0  0  0
    3.7349   -1.1185    0.1147 C   0  0  0  0  0  0  0  0  0  0  0  0
    4.9331   -1.7899   -0.1829 C   0  0  0  0  0  0  0  0  0  0  0  0
    6.1253   -1.5032    0.5037 C   0  0  0  0  0  0  0  0  0  0  0  0
    7.3234   -2.1742    0.2050 C   0  0  0  0  0  0  0  0  0  0  0  0
    8.5152   -1.8870    0.8912 C   0  0  0  0  0  0  0  0  0  0  0  0
    9.7132   -2.5574    0.5930 C   0  0  0  0  0  0  0  0  0  0  0  0
   10.8890   -2.2605    1.2839 C   0  0  0  0  0  0  0  0  0  0  0  0
   10.8824   -1.2903    2.2812 C   0  0  0  0  0  0  0  0  0  0  0  0
    9.7001   -0.6155    2.5890 C   0  0  0  0  0  0  0  0  0  0  0  0
    8.5085   -0.9031    1.9025 C   0  0  0  0  0  0  0  0  0  0  0  0
    7.3103   -0.2330    2.2005 C   0  0  0  0  0  0  0  0  0  0  0  0
    6.1188   -0.5212    1.5134 C   0  0  0  0  0  0  0  0  0  0  0  0
    4.9206    0.1492    1.8115 C   0  0  0  0  0  0  0  0  0  0  0  0
    3.7290   -0.1370    1.1245 C   0  0  0  0  0  0  0  0  0  0  0  0
    2.5319    0.5356    1.4221 C   0  0  0  0  0  0  0  0  0  0  0  0
    1.3414    0.2518    0.7332 C   0  0  0  0  0  0  0  0  0  0  0  0
    0.1470    0.9287    1.0262 C   0  0  0  0  0  0  0  0  0  0  0  0
   -1.0486    0.6567    0.3337 C   0  0  0  0  0  0  0  0  0  0  0  0
   -2.2617    1.4290    0.6770 C   0  0  0  0  0  0  0  0  0  0  0  0
   -3.1792    0.8647    1.5817 C   0  0  0  0  0  0  0  0  0  0  0  0
   -4.3454    1.5361    1.9289 C   0  0  0  0  0  0  0  0  0  0  0  0
   -4.6109    2.7868    1.3798 C   0  0  0  0  0  0  0  0  0  0  0  0
   -3.7167    3.3870    0.4802 C   0  0  0  0  0  0  0  0  0  0  0  0
   -4.0085    4.6512   -0.0620 C   0  0  0  0  0  0  0  0  0  0  0  0
   -3.1519    5.2933   -0.9635 C   0  0  0  0  0  0  0  0  0  0  0  0
   -3.5242    6.5679   -1.4639 C   0  0  0  0  0  0  0  0  0  0  0  0
   -2.5853    7.0939   -2.3496 C   0  0  0  0  0  0  0  0  0  0  0  0
   -2.7306    8.3142   -2.9611 C   0  0  0  0  0  0  0  0  0  0  0  0
   -1.3921    8.6562   -3.9891 S   0  0  0  0  0  0  0  0  0  0  0  0
   -0.6223    7.1637   -3.6089 C   0  0  0  0  0  0  0  0  0  0  0  0
   -1.3729    6.4324   -2.7225 C   0  0  0  0  0  0  0  0  0  0  0  0
   -0.9846    5.1820   -2.2459 C   0  0  0  0  0  0  0  0  0  0  0  0
   -1.9253    4.6236   -1.3423 C   0  0  0  0  0  0  0  0  0  0  0  0
   -1.6552    3.3639   -0.7916 C   0  0  0  0  0  0  0  0  0  0  0  0
   -2.5255    2.7159    0.1190 C   0  0  0  0  0  0  0  0  0  0  0  0
   -2.6103    0.0825   -2.5460 C   0  0  0  0  0  0  0  0  0  0  0  0
   -4.0117    0.4249   -4.1408 H   0  0  0  0  0  0  0  0  0  0  0  0
   -5.4620   -1.4579   -3.5118 H   0  0  0  0  0  0  0  0  0  0  0  0
   -5.9871   -3.3211   -2.0710 H   0  0  0  0  0  0  0  0  0  0  0  0
   -6.6299   -5.2156   -0.6778 H   0  0  0  0  0  0  0  0  0  0  0  0
   -7.0086   -7.2594    1.1029 H   0  0  0  0  0  0  0  0  0  0  0  0
   -3.2738   -6.4491    3.5950 H   0  0  0  0  0  0  0  0  0  0  0  0
   -2.4046   -4.2987    2.1415 H   0  0  0  0  0  0  0  0  0  0  0  0
   -1.9360   -2.4467    0.6530 H   0  0  0  0  0  0  0  0  0  0  0  0
    0.1523   -1.7725   -1.7432 H   0  0  0  0  0  0  0  0  0  0  0  0
    2.5465   -2.1616   -1.3539 H   0  0  0  0  0  0  0  0  0  0  0  0
    4.9384   -2.5489   -0.9633 H   0  0  0  0  0  0  0  0  0  0  0  0
    7.3295   -2.9336   -0.5749 H   0  0  0  0  0  0  0  0  0  0  0  0
    9.7387   -3.3190   -0.1832 H   0  0  0  0  0  0  0  0  0  0  0  0
   11.8085   -2.7872    1.0426 H   0  0  0  0  0  0  0  0  0  0  0  0
   11.7968   -1.0574    2.8205 H   0  0  0  0  0  0  0  0  0  0  0  0
    9.7152    0.1396    3.3718 H   0  0  0  0  0  0  0  0  0  0  0  0
    7.3058    0.5257    2.9810 H   0  0  0  0  0  0  0  0  0  0  0  0
    4.9149    0.9081    2.5921 H   0  0  0  0  0  0  0  0  0  0  0  0
    2.5272    1.2949    2.2024 H   0  0  0  0  0  0  0  0  0  0  0  0
    0.1389    1.6931    1.8030 H   0  0  0  0  0  0  0  0  0  0  0  0
   -2.9875   -0.1161    2.0123 H   0  0  0  0  0  0  0  0  0  0  0  0
   -5.0496    1.0820    2.6208 H   0  0  0  0  0  0  0  0  0  0  0  0
   -5.5328    3.2918    1.6609 H   0  0  0  0  0  0  0  0  0  0  0  0
   -4.9354    5.1440    0.2298 H   0  0  0  0  0  0  0  0  0  0  0  0
   -4.4404    7.0714   -1.1841 H   0  0  0  0  0  0  0  0  0  0  0  0
   -3.5370    9.0288   -2.8715 H   0  0  0  0  0  0  0  0  0  0  0  0
    0.3296    6.9179   -4.0591 H   0  0  0  0  0  0  0  0  0  0  0  0
   -0.0661    4.6841   -2.5297 H   0  0  0  0  0  0  0  0  0  0  0  0
   -0.7332    2.8622   -1.0837 H   0  0  0  0  0  0  0  0  0  0  0  0
   -1.9859    0.9250   -2.8364 H   0  0  0  0  0  0  0  0  0  0  0  0
  1  2  4  0
  2  3  4  0
  3  4  4  0
  4  5  4  0
  5  6  4  0
  6  7  4  0
  7  8  4  0
  8  9  4  0
  9 10  4  0
 10 11  4  0
 11 12  4  0
 12 13  4  0
 13 14  4  0
 14 15  4  0
 15 16  4  0
 16 17  1  0
 17 18  4  0
 18 19  4  0
 19 20  4  0
 20 21  4  0
 21 22  4  0
 22 23  4  0
 23 24  4  0
 24 25  4  0
 25 26  4  0
 26 27  4  0
 27 28  4  0
 28 29  4  0
 29 30  4  0
 30 31  4  0
 31 32  4  0
 32 33  4  0
 33 34  4  0
 34 35  4  0
 35 36  4  0
 36 37  4  0
 37 38  4  0
 38 39  1  0
 39 40  4  0
 40 41  4  0
 41 42  4  0
 42 43  4  0
 43 44  4  0
 44 45  4  0
 45 46  4  0
 46 47  4  0
 47 48  4  0
 48 49  4  0
 49 50  4  0
 50 51  4  0
 51 52  4  0
 52 53  4  0
 53 54  4  0
 54 55  4  0
 16 56  4  0
 56  1  4  0
 15  3  4  0
 38 17  4  0
 55 39  4  0
 13  5  4  0
 36 19  4  0
 55 43  4  0
 11  7  4  0
 34 21  4  0
 53 45  4  0
 32 23  4  0
 51 47  4  0
 30 25  4  0
  1 57  1  0
  2 58  1  0
  4 59  1  0
  6 60  1  0
  8 61  1  0
 10 62  1  0
 12 63  1  0
 14 64  1  0
 18 65  1  0
 20 66  1  0
 22 67  1  0
 24 68  1  0
 26 69  1  0
 27 70  1  0
 28 71  1  0
 29 72  1  0
 31 73  1  0
 33 74  1  0
 35 75  1  0
 37 76  1  0
 40 77  1  0
 41 78  1  0
 42 79  1  0
 44 80  1  0
 46 81  1  0
 48 82  1  0
 50 83  1  0
 52 84  1  0
 54 85  1  0
 56 86  1  0
M  END
