
     RDKit          3D

 86 98  0  0  0  0  0  0  0  0999 V2000
   -2.8000   -1.9775    2.0686 C   0  0  0  0  0  0  0  0  0  0  0  0
   -1.6702   -1.2343    1.7185 C   0  0  0  0  0  0  0  0  0  0  0  0
   -0.9969   -1.4774    0.5154 C   0  0  0  0  0  0  0  0  0  0  0  0
    0.1858   -0.6849    0.1310 C   0  0  0  0  0  0  0  0  0  0  0  0
    1.4424   -1.3235    0.0951 C   0  0  0  0  0  0  0  0  0  0  0  0
    2.6172   -0.6365   -0.2510 C   0  0  0  0  0  0  0  0  0  0  0  0
    3.8646   -1.2826   -0.2808 C   0  0  0  0  0  0  0  0  0  0  0  0
    5.0390   -0.5941   -0.6288 C   0  0  0  0  0  0  0  0  0  0  0  0
    6.2867   -1.2399   -0.6599 C   0  0  0  0  0  0  0  0  0  0  0  0
    7.4609   -0.5514   -1.0085 C   0  0  0  0  0  0  0  0  0  0  0  0
    8.7083   -1.1979   -1.0396 C   0  0  0  0  0  0  0  0  0  0  0  0
    9.8821   -0.5094   -1.3882 C   0  0  0  0  0  0  0  0  0  0  0  0
   11.1295   -1.1550   -1.4196 C   0  0  0  0  0  0  0  0  0  0  0  0
   12.2866   -0.4567   -1.7681 C   0  0  0  0  0  0  0  0  0  0  0  0
   12.2118    0.8949   -2.0897 C   0  0  0  0  0  0  0  0  0  0  0  0
   10.9798    1.5503   -2.0631 C   0  0  0  0  0  0  0  0  0  0  0  0
    9.8063    0.8613   -1.7143 C   0  0  0  0  0  0  0  0  0  0  0  0
    8.5589    1.5065   -1.6830 C   0  0  0  0  0  0  0  0  0  0  0  0
    7.3853    0.8169   -1.3340 C   0  0  0  0  0  0  0  0  0  0  0  0
    6.1375    1.4624   -1.3029 C   0  0  0  0  0  0  0  0  0  0  0  0
    4.9635    0.7737   -0.9542 C   0  0  0  0  0  0  0  0  0  0  0  0
    3.7158    1.4192   -0.9229 C   0  0  0  0  0  0  0  0  0  0  0  0
    2.5423    0.7297   -0.5740 C   0  0  0  0  0  0  0  0  0  0  0  0
    1.2947    1.3732   -0.5407 C   0  0  0  0  0  0  0  0  0  0  0  0
    0.1108    0.6909   -0.1939 C   0  0  0  0  0  0  0  0  0  0  0  0
   -1.1580    1.4417   -0.1909 C   0  0  0  0  0  0  0  0  0  0  0  0
   -1.3973    2.4359    0.7724 C   0  0  0  0  0  0  0  0  0  0  0  0
   -2.6044    3.1560    0.8045 C   0  0  0  0  0  0  0  0  0  0  0  0
   -2.8388    4.1422    1.7772 C   0  0  0  0  0  0  0  0  0  0  0  0
   -4.0378    4.8645    1.8255 C   0  0  0  0  0  0  0  0  0  0  0  0
   -4.1950    5.8422    2.8409 C   0  0  0  0  0  0  0  0  0  0  0  0
   -5.4288    6.4872    2.7804 C   0  0  0  0  0  0  0  0  0  0  0  0
   -5.8053    7.4701    3.6615 C   0  0  0  0  0  0  0  0  0  0  0  0
   -7.3860    8.0515    3.3037 S   0  0  0  0  0  0  0  0  0  0  0  0
   -7.5590    6.9803    1.9669 C   0  0  0  0  0  0  0  0  0  0  0  0
   -6.4376    6.2053    1.8058 C   0  0  0  0  0  0  0  0  0  0  0  0
   -6.3098    5.2512    0.7981 C   0  0  0  0  0  0  0  0  0  0  0  0
   -5.0621    4.5780    0.8362 C   0  0  0  0  0  0  0  0  0  0  0  0
   -4.8079    3.5912   -0.1249 C   0  0  0  0  0  0  0  0  0  0  0  0
   -3.5977    2.8788   -0.1552 C   0  0  0  0  0  0  0  0  0  0  0  0
   -3.3579    1.8926   -1.1233 C   0  0  0  0  0  0  0  0  0  0  0  0
   -2.1528    1.1859   -1.1418 C   0  0  0  0  0  0  0  0  0  0  0  0
   -1.4779   -2.4983   -0.3217 C   0  0  0  0  0  0  0  0  0  0  0  0
   -2.6138   -3.2558    0.0164 C   0  0  0  0  0  0  0  0  0  0  0  0
   -3.0947   -4.2688   -0.8306 C   0  0  0  0  0  0  0  0  0  0  0  0
   -4.2293   -5.0261   -0.5108 C   0  0  0  0  0  0  0  0  0  0  0  0
   -4.6507   -6.0294   -1.4210 C   0  0  0  0  0  0  0  0  0  0  0  0
   -5.7889   -6.7068   -0.9873 C   0  0  0  0  0  0  0  0  0  0  0  0
   -6.3784   -7.7190   -1.7032 C   0  0  0  0  0  0  0  0  0  0  0  0
   -7.7616   -8.3349   -0.8833 S   0  0  0  0  0  0  0  0  0  0  0  0
   -7.5636   -7.2396    0.4304 C   0  0  0  0  0  0  0  0  0  0  0  0
   -6.4705   -6.4315    0.2402 C   0  0  0  0  0  0  0  0  0  0  0  0
   -6.0791   -5.4530    1.1520 C   0  0  0  0  0  0  0  0  0  0  0  0
   -4.9210   -4.7479    0.7358 C   0  0  0  0  0  0  0  0  0  0  0  0
   -4.4237   -3.7362    1.5668 C   0  0  0  0  0  0  0  0  0  0  0  0
   -3.2841   -2.9889    1.2264 C   0  0  0  0  0  0  0  0  0  0  0  0
   -3.3025   -1.7525    3.0068 H   0  0  0  0  0  0  0  0  0  0  0  0
   -1.3228   -0.4531    2.3915 H   0  0  0  0  0  0  0  0  0  0  0  0
    1.5005   -2.3804    0.3545 H   0  0  0  0  0  0  0  0  0  0  0  0
    3.9221   -2.3402   -0.0291 H   0  0  0  0  0  0  0  0  0  0  0  0
    6.3448   -2.2976   -0.4087 H   0  0  0  0  0  0  0  0  0  0  0  0
    8.7675   -2.2555   -0.7885 H   0  0  0  0  0  0  0  0  0  0  0  0
   11.2085   -2.2111   -1.1715 H   0  0  0  0  0  0  0  0  0  0  0  0
   13.2449   -0.9691   -1.7882 H   0  0  0  0  0  0  0  0  0  0  0  0
   13.1115    1.4407   -2.3614 H   0  0  0  0  0  0  0  0  0  0  0  0
   10.9419    2.6071   -2.3177 H   0  0  0  0  0  0  0  0  0  0  0  0
    8.5015    2.5639   -1.9351 H   0  0  0  0  0  0  0  0  0  0  0  0
    6.0790    2.5197   -1.5551 H   0  0  0  0  0  0  0  0  0  0  0  0
    3.6567    2.4768   -1.1745 H   0  0  0  0  0  0  0  0  0  0  0  0
    1.2335    2.4304   -0.7988 H   0  0  0  0  0  0  0  0  0  0  0  0
   -0.6309    2.6401    1.5186 H   0  0  0  0  0  0  0  0  0  0  0  0
   -2.0630    4.3466    2.5140 H   0  0  0  0  0  0  0  0  0  0  0  0
   -3.4348    6.0586    3.5803 H   0  0  0  0  0  0  0  0  0  0  0  0
   -5.2546    7.8858    4.4940 H   0  0  0  0  0  0  0  0  0  0  0  0
   -8.4707    6.9875    1.3856 H   0  0  0  0  0  0  0  0  0  0  0  0
   -7.0762    5.0411    0.0632 H   0  0  0  0  0  0  0  0  0  0  0  0
   -5.5678    3.3640   -0.8716 H   0  0  0  0  0  0  0  0  0  0  0  0
   -4.1112    1.6601   -1.8728 H   0  0  0  0  0  0  0  0  0  0  0  0
   -1.9985    0.4239   -1.9030 H   0  0  0  0  0  0  0  0  0  0  0  0
   -0.9631   -2.6944   -1.2611 H   0  0  0  0  0  0  0  0  0  0  0  0
   -2.5677   -4.4660   -1.7633 H   0  0  0  0  0  0  0  0  0  0  0  0
   -4.1390   -6.2407   -2.3511 H   0  0  0  0  0  0  0  0  0  0  0  0
   -6.0869   -8.1384   -2.6562 H   0  0  0  0  0  0  0  0  0  0  0  0
   -8.2606   -7.2587    1.2568 H   0  0  0  0  0  0  0  0  0  0  0  0
   -6.5980   -5.2476    2.0794 H   0  0  0  0  0  0  0  0  0  0  0  0
   -4.9328   -3.5169    2.5046 H   0  0  0  0  0  0  0  0  0  0  0  0
  1  2  4  0
  2  3  4  0
  3  4  1  0
  4  5  4  0
  5  6  4  0
  6  7  4  0
  7  8  4  0
  8  9  4  0
  9 10  4  0
 10 11  4  0
 11 12  4  0
 12 13  4  0
 13 14  4  0
 14 15  4  0
 15 16  4  0
 16 17  4  0
 17 18  4  0
 18 19  4  0
 19 20  4  0
 20 21  4  0
 21 22  4  0
 22 23  4  0
 23 24  4  0
 24 25  4  0
 25 26  1  0
 26 27  4  0
 27 28  4  0
 28 29  4  0
 29 30  4  0
 30 31  4  0
 31 32  4  0
 32 33  4  0
 33 34  4  0
 34 35  4  0
 35 36  4  0
 36 37  4  0
 37 38  4  0
 38 39  4  0
 39 40  4  0
 40 41  4  0
 41 42  4  0
  3 43  4  0
 43 44  4  0
 44 45  4  0
 45 46  4  0
 46 47  4  0
 47 48  4  0
 48 49  4  0
 49 50  4  0
 50 51  4  0
 51 52  4  0
 52 53  4  0
 53 54  4  0
 54 55  4  0
 55 56  4  0
 56  1  4  0
 25  4  4  0
 42 26  4  0
 56 44  4  0
 23  6  4  0
 40 28  4  0
 54 46  4  0
 21  8  4  0
 38 30  4  0
 52 48  4  0
 19 10  4  0
 36 32  4  0
 17 12  4  0
  1 57  1  0
  2 58  1  0
  5 59  1  0
  7 60  1  0
  9 61  1  0
 11 62  1  0
 13 63  1  0
 14 64  1  0
 15 65  1  0
 16 66  1  0
 18 67  1  0
 20 68  1  0
 22 69  1  0
 24 70  1  0
 27 71  1  0
 29 72  1  0
 31 73  1  0
 33 74  1  0
 35 75  1  0
 37 76  1  0
 39 77  1  0
 41 78  1  0
 42 79  1  0
 43 80  1  0
 45 81  1  0
 47 82  1  0
 49 83  1  0
 51 84  1  0
 53 85  1  0
 55 86  1  0
M  END
