
     RDKit          3D

 84 96  0  0  0  0  0  0  0  0999 V2000
   -6.1406   -2.1443    2.5711 C   0  0  0  0  0  0  0  0  0  0  0  0
   -4.8401   -1.6477    2.5160 C   0  0  0  0  0  0  0  0  0  0  0  0
   -4.1275   -1.6421    1.3078 C   0  0  0  0  0  0  0  0  0  0  0  0
   -4.7358   -2.1399    0.1362 C   0  0  0  0  0  0  0  0  0  0  0  0
   -6.0576   -2.6438    0.1958 C   0  0  0  0  0  0  0  0  0  0  0  0
   -6.7454   -2.6406    1.4181 C   0  0  0  0  0  0  0  0  0  0  0  0
   -6.6571   -3.1362   -0.9686 C   0  0  0  0  0  0  0  0  0  0  0  0
   -5.9657   -3.1321   -2.1804 C   0  0  0  0  0  0  0  0  0  0  0  0
   -4.6584   -2.6354   -2.2582 C   0  0  0  0  0  0  0  0  0  0  0  0
   -3.9714   -2.6298   -3.4779 C   0  0  0  0  0  0  0  0  0  0  0  0
   -2.6761   -2.1324   -3.5545 C   0  0  0  0  0  0  0  0  0  0  0  0
   -2.0530   -1.6372   -2.4096 C   0  0  0  0  0  0  0  0  0  0  0  0
   -2.7026   -1.6256   -1.1534 C   0  0  0  0  0  0  0  0  0  0  0  0
   -4.0266   -2.1325   -1.0921 C   0  0  0  0  0  0  0  0  0  0  0  0
   -2.0977   -1.1273    0.0351 C   0  0  0  0  0  0  0  0  0  0  0  0
   -0.7225   -0.5828    0.0539 C   0  0  0  0  0  0  0  0  0  0  0  0
    0.3617   -1.4824    0.0767 C   0  0  0  0  0  0  0  0  0  0  0  0
    1.6932   -1.0377    0.0787 C   0  0  0  0  0  0  0  0  0  0  0  0
    2.7685   -1.9414    0.0971 C   0  0  0  0  0  0  0  0  0  0  0  0
    4.1004   -1.4948    0.0965 C   0  0  0  0  0  0  0  0  0  0  0  0
    5.1758   -2.3984    0.1155 C   0  0  0  0  0  0  0  0  0  0  0  0
    6.5083   -1.9529    0.1153 C   0  0  0  0  0  0  0  0  0  0  0  0
    7.5835   -2.8573    0.1343 C   0  0  0  0  0  0  0  0  0  0  0  0
    8.9157   -2.4117    0.1346 C   0  0  0  0  0  0  0  0  0  0  0  0
    9.9911   -3.3153    0.1536 C   0  0  0  0  0  0  0  0  0  0  0  0
   11.3093   -2.8568    0.1537 C   0  0  0  0  0  0  0  0  0  0  0  0
   11.5693   -1.4901    0.1348 C   0  0  0  0  0  0  0  0  0  0  0  0
   10.5115   -0.5798    0.1157 C   0  0  0  0  0  0  0  0  0  0  0  0
    9.1794   -1.0257    0.1153 C   0  0  0  0  0  0  0  0  0  0  0  0
    8.1036   -0.1225    0.0961 C   0  0  0  0  0  0  0  0  0  0  0  0
    6.7714   -0.5693    0.0957 C   0  0  0  0  0  0  0  0  0  0  0  0
    5.6955    0.3342    0.0762 C   0  0  0  0  0  0  0  0  0  0  0  0
    4.3631   -0.1116    0.0764 C   0  0  0  0  0  0  0  0  0  0  0  0
    3.2868    0.7915    0.0576 C   0  0  0  0  0  0  0  0  0  0  0  0
    1.9552    0.3443    0.0591 C   0  0  0  0  0  0  0  0  0  0  0  0
    0.8792    1.2461    0.0451 C   0  0  0  0  0  0  0  0  0  0  0  0
   -0.4594    0.8067    0.0539 C   0  0  0  0  0  0  0  0  0  0  0  0
   -1.5410    1.8164    0.0592 C   0  0  0  0  0  0  0  0  0  0  0  0
   -2.2075    2.0836   -1.1511 C   0  0  0  0  0  0  0  0  0  0  0  0
   -3.2462    3.0167   -1.2289 C   0  0  0  0  0  0  0  0  0  0  0  0
   -3.6298    3.7193   -0.0675 C   0  0  0  0  0  0  0  0  0  0  0  0
   -4.6782    4.6682   -0.1400 C   0  0  0  0  0  0  0  0  0  0  0  0
   -5.3237    4.8952   -1.3645 C   0  0  0  0  0  0  0  0  0  0  0  0
   -4.9433    4.1948   -2.5072 C   0  0  0  0  0  0  0  0  0  0  0  0
   -3.9110    3.2615   -2.4397 C   0  0  0  0  0  0  0  0  0  0  0  0
   -5.0545    5.3637    1.0142 C   0  0  0  0  0  0  0  0  0  0  0  0
   -4.4087    5.1277    2.2283 C   0  0  0  0  0  0  0  0  0  0  0  0
   -3.3720    4.1902    2.3191 C   0  0  0  0  0  0  0  0  0  0  0  0
   -2.7319    3.9544    3.5414 C   0  0  0  0  0  0  0  0  0  0  0  0
   -1.7091    3.0179    3.6315 C   0  0  0  0  0  0  0  0  0  0  0  0
   -1.3128    2.3101    2.4974 C   0  0  0  0  0  0  0  0  0  0  0  0
   -1.9219    2.5181    1.2381 C   0  0  0  0  0  0  0  0  0  0  0  0
   -2.9695    3.4729    1.1634 C   0  0  0  0  0  0  0  0  0  0  0  0
   -2.8206   -1.1488    1.2422 C   0  0  0  0  0  0  0  0  0  0  0  0
   -6.6835   -2.1421    3.5124 H   0  0  0  0  0  0  0  0  0  0  0  0
   -4.3861   -1.2586    3.4248 H   0  0  0  0  0  0  0  0  0  0  0  0
   -7.7617   -3.0229    1.4802 H   0  0  0  0  0  0  0  0  0  0  0  0
   -7.6719   -3.5271   -0.9442 H   0  0  0  0  0  0  0  0  0  0  0  0
   -6.4622   -3.5207   -3.0669 H   0  0  0  0  0  0  0  0  0  0  0  0
   -4.4428   -3.0121   -4.3804 H   0  0  0  0  0  0  0  0  0  0  0  0
   -2.1486   -2.1272   -4.5046 H   0  0  0  0  0  0  0  0  0  0  0  0
   -1.0408   -1.2511   -2.5119 H   0  0  0  0  0  0  0  0  0  0  0  0
    0.1528   -2.5520    0.0879 H   0  0  0  0  0  0  0  0  0  0  0  0
    2.5653   -3.0110    0.1122 H   0  0  0  0  0  0  0  0  0  0  0  0
    4.9720   -3.4677    0.1308 H   0  0  0  0  0  0  0  0  0  0  0  0
    7.3815   -3.9269    0.1488 H   0  0  0  0  0  0  0  0  0  0  0  0
    9.8084   -4.3875    0.1686 H   0  0  0  0  0  0  0  0  0  0  0  0
   12.1316   -3.5674    0.1685 H   0  0  0  0  0  0  0  0  0  0  0  0
   12.5949   -1.1308    0.1348 H   0  0  0  0  0  0  0  0  0  0  0  0
   10.7352    0.4846    0.1010 H   0  0  0  0  0  0  0  0  0  0  0  0
    8.3078    0.9467    0.0816 H   0  0  0  0  0  0  0  0  0  0  0  0
    5.8995    1.4035    0.0605 H   0  0  0  0  0  0  0  0  0  0  0  0
    3.4887    1.8612    0.0423 H   0  0  0  0  0  0  0  0  0  0  0  0
    1.0773    2.3177    0.0335 H   0  0  0  0  0  0  0  0  0  0  0  0
   -1.9100    1.5408   -2.0472 H   0  0  0  0  0  0  0  0  0  0  0  0
   -6.1324    5.6190   -1.4360 H   0  0  0  0  0  0  0  0  0  0  0  0
   -5.4528    4.3730   -3.4504 H   0  0  0  0  0  0  0  0  0  0  0  0
   -3.6311    2.7193   -3.3404 H   0  0  0  0  0  0  0  0  0  0  0  0
   -5.8574    6.0966    0.9801 H   0  0  0  0  0  0  0  0  0  0  0  0
   -4.7273    5.6846    3.1068 H   0  0  0  0  0  0  0  0  0  0  0  0
   -3.0290    4.4972    4.4358 H   0  0  0  0  0  0  0  0  0  0  0  0
   -1.2190    2.8350    4.5840 H   0  0  0  0  0  0  0  0  0  0  0  0
   -0.5124    1.5816    2.6108 H   0  0  0  0  0  0  0  0  0  0  0  0
   -2.3492   -0.7630    2.1451 H   0  0  0  0  0  0  0  0  0  0  0  0
  1  2  4  0
  2  3  4  0
  3  4  4  0
  4  5  4  0
  5  6  4  0
  5  7  4  0
  7  8  4  0
  8  9  4  0
  9 10  4  0
 10 11  4  0
 11 12  4  0
 12 13  4  0
 13 14  4  0
 13 15  4  0
 15 16  1  0
 16 17  4  0
 17 18  4  0
 18 19  4  0
 19 20  4  0
 20 21  4  0
 21 22  4  0
 22 23  4  0
 23 24  4  0
 24 25  4  0
 25 26  4  0
 26 27  4  0
 27 28  4  0
 28 29  4  0
 29 30  4  0
 30 31  4  0
 31 32  4  0
 32 33  4  0
 33 34  4  0
 34 35  4  0
 35 36  4  0
 36 37  4  0
 37 38  1  0
 38 39  4  0
 39 40  4  0
 40 41  4  0
 41 42  4  0
 42 43  4  0
 43 44  4  0
 44 45  4  0
 42 46  4  0
 46 47  4  0
 47 48  4  0
 48 49  4  0
 49 50  4  0
 50 51  4  0
 51 52  4  0
 52 53  4  0
 15 54  4  0
  6  1  4  0
 14  9  4  0
 37 16  4  0
 52 38  4  0
 54  3  4  0
 14  4  4  0
 35 18  4  0
 45 40  4  0
 53 48  4  0
 33 20  4  0
 53 41  4  0
 31 22  4  0
 29 24  4  0
  1 55  1  0
  2 56  1  0
  6 57  1  0
  7 58  1  0
  8 59  1  0
 10 60  1  0
 11 61  1  0
 12 62  1  0
 17 63  1  0
 19 64  1  0
 21 65  1  0
 23 66  1  0
 25 67  1  0
 26 68  1  0
 27 69  1  0
 28 70  1  0
 30 71  1  0
 32 72  1  0
 34 73  1  0
 36 74  1  0
 39 75  1  0
 43 76  1  0
 44 77  1  0
 45 78  1  0
 46 79  1  0
 47 80  1  0
 49 81  1  0
 50 82  1  0
 51 83  1  0
 54 84  1  0
M  END
