
     RDKit          3D

116132  0  0  0  0  0  0  0  0999 V2000
    2.2951   -9.1662    4.4922 C   0  0  0  0  0  0  0  0  0  0  0  0
    3.2451   -8.3655    3.8563 C   0  0  0  0  0  0  0  0  0  0  0  0
    2.8995   -7.0985    3.3574 C   0  0  0  0  0  0  0  0  0  0  0  0
    3.8437   -6.2806    2.7149 C   0  0  0  0  0  0  0  0  0  0  0  0
    3.4974   -5.0130    2.2169 C   0  0  0  0  0  0  0  0  0  0  0  0
    4.4416   -4.1947    1.5740 C   0  0  0  0  0  0  0  0  0  0  0  0
    4.0961   -2.9265    1.0770 C   0  0  0  0  0  0  0  0  0  0  0  0
    5.0390   -2.1080    0.4326 C   0  0  0  0  0  0  0  0  0  0  0  0
    4.6921   -0.8397   -0.0635 C   0  0  0  0  0  0  0  0  0  0  0  0
    5.6306   -0.0205   -0.7094 C   0  0  0  0  0  0  0  0  0  0  0  0
    5.2834    1.2443   -1.2139 C   0  0  0  0  0  0  0  0  0  0  0  0
    6.2500    2.0344   -1.8533 C   0  0  0  0  0  0  0  0  0  0  0  0
    5.9293    3.2914   -2.3555 C   0  0  0  0  0  0  0  0  0  0  0  0
    4.6299    3.7702   -2.2335 C   0  0  0  0  0  0  0  0  0  0  0  0
    3.6271    3.0018   -1.6114 C   0  0  0  0  0  0  0  0  0  0  0  0
    2.2642    3.5720   -1.5379 C   0  0  0  0  0  0  0  0  0  0  0  0
    1.9588    4.4440   -0.4742 C   0  0  0  0  0  0  0  0  0  0  0  0
    0.6946    5.0404   -0.3441 C   0  0  0  0  0  0  0  0  0  0  0  0
    0.3966    5.9026    0.7241 C   0  0  0  0  0  0  0  0  0  0  0  0
   -0.8688    6.4996    0.8527 C   0  0  0  0  0  0  0  0  0  0  0  0
   -1.1686    7.3604    1.9218 C   0  0  0  0  0  0  0  0  0  0  0  0
   -2.4338    7.9579    2.0500 C   0  0  0  0  0  0  0  0  0  0  0  0
   -2.7325    8.8189    3.1194 C   0  0  0  0  0  0  0  0  0  0  0  0
   -3.9972    9.4169    3.2475 C   0  0  0  0  0  0  0  0  0  0  0  0
   -4.2960   10.2781    4.3162 C   0  0  0  0  0  0  0  0  0  0  0  0
   -5.5574   10.8648    4.4297 C   0  0  0  0  0  0  0  0  0  0  0  0
   -6.5356   10.5982    3.4768 C   0  0  0  0  0  0  0  0  0  0  0  0
   -6.2538    9.7446    2.4091 C   0  0  0  0  0  0  0  0  0  0  0  0
   -4.9890    9.1465    2.2810 C   0  0  0  0  0  0  0  0  0  0  0  0
   -4.6894    8.2853    1.2124 C   0  0  0  0  0  0  0  0  0  0  0  0
   -3.4239    7.6879    1.0853 C   0  0  0  0  0  0  0  0  0  0  0  0
   -3.1240    6.8266    0.0166 C   0  0  0  0  0  0  0  0  0  0  0  0
   -1.8588    6.2291   -0.1115 C   0  0  0  0  0  0  0  0  0  0  0  0
   -1.5595    5.3671   -1.1799 C   0  0  0  0  0  0  0  0  0  0  0  0
   -0.2948    4.7690   -1.3064 C   0  0  0  0  0  0  0  0  0  0  0  0
    0.0034    3.9030   -2.3703 C   0  0  0  0  0  0  0  0  0  0  0  0
    1.2649    3.2878   -2.4995 C   0  0  0  0  0  0  0  0  0  0  0  0
    1.4923    2.3660   -3.6353 C   0  0  0  0  0  0  0  0  0  0  0  0
    0.9762    1.0342   -3.6532 C   0  0  0  0  0  0  0  0  0  0  0  0
    0.1935    0.4798   -2.6110 C   0  0  0  0  0  0  0  0  0  0  0  0
   -0.2924   -0.8387   -2.6460 C   0  0  0  0  0  0  0  0  0  0  0  0
   -1.0657   -1.3651   -1.5972 C   0  0  0  0  0  0  0  0  0  0  0  0
   -1.5486   -2.6839   -1.6323 C   0  0  0  0  0  0  0  0  0  0  0  0
   -2.3221   -3.2107   -0.5842 C   0  0  0  0  0  0  0  0  0  0  0  0
   -2.8040   -4.5302   -0.6197 C   0  0  0  0  0  0  0  0  0  0  0  0
   -3.5773   -5.0564    0.4291 C   0  0  0  0  0  0  0  0  0  0  0  0
   -4.0591   -6.3754    0.3938 C   0  0  0  0  0  0  0  0  0  0  0  0
   -4.8320   -6.9019    1.4419 C   0  0  0  0  0  0  0  0  0  0  0  0
   -5.3034   -8.2147    1.3920 C   0  0  0  0  0  0  0  0  0  0  0  0
   -5.0084   -9.0173    0.2945 C   0  0  0  0  0  0  0  0  0  0  0  0
   -4.2415   -8.5085   -0.7548 C   0  0  0  0  0  0  0  0  0  0  0  0
   -3.7598   -7.1894   -0.7192 C   0  0  0  0  0  0  0  0  0  0  0  0
   -2.9867   -6.6624   -1.7671 C   0  0  0  0  0  0  0  0  0  0  0  0
   -2.5053   -5.3427   -1.7307 C   0  0  0  0  0  0  0  0  0  0  0  0
   -1.7322   -4.8152   -2.7789 C   0  0  0  0  0  0  0  0  0  0  0  0
   -1.2504   -3.4957   -2.7432 C   0  0  0  0  0  0  0  0  0  0  0  0
   -0.4781   -2.9674   -3.7915 C   0  0  0  0  0  0  0  0  0  0  0  0
    0.0034   -1.6473   -3.7551 C   0  0  0  0  0  0  0  0  0  0  0  0
    0.7730   -1.1142   -4.8007 C   0  0  0  0  0  0  0  0  0  0  0  0
    1.2565    0.2055   -4.7658 C   0  0  0  0  0  0  0  0  0  0  0  0
    2.0188    0.7020   -5.8335 C   0  0  0  0  0  0  0  0  0  0  0  0
    2.5027    2.0062   -5.8224 C   0  0  0  0  0  0  0  0  0  0  0  0
    2.2385    2.8304   -4.7343 C   0  0  0  0  0  0  0  0  0  0  0  0
    3.9584    1.7228   -1.0763 C   0  0  0  0  0  0  0  0  0  0  0  0
    3.0314    0.8917   -0.4053 C   0  0  0  0  0  0  0  0  0  0  0  0
    3.3745   -0.3782    0.0898 C   0  0  0  0  0  0  0  0  0  0  0  0
    2.4297   -1.1970    0.7312 C   0  0  0  0  0  0  0  0  0  0  0  0
    2.7744   -2.4656    1.2268 C   0  0  0  0  0  0  0  0  0  0  0  0
    1.8295   -3.2843    1.8676 C   0  0  0  0  0  0  0  0  0  0  0  0
    2.1747   -4.5522    2.3649 C   0  0  0  0  0  0  0  0  0  0  0  0
    1.2291   -5.3698    3.0065 C   0  0  0  0  0  0  0  0  0  0  0  0
    1.5742   -6.6370    3.5049 C   0  0  0  0  0  0  0  0  0  0  0  0
    0.6295   -7.4546    4.1471 C   0  0  0  0  0  0  0  0  0  0  0  0
    0.9883   -8.7112    4.6374 C   0  0  0  0  0  0  0  0  0  0  0  0
    2.5767  -10.1443    4.8734 H   0  0  0  0  0  0  0  0  0  0  0  0
    4.2615   -8.7387    3.7526 H   0  0  0  0  0  0  0  0  0  0  0  0
    4.8658   -6.6370    2.6008 H   0  0  0  0  0  0  0  0  0  0  0  0
    5.4636   -4.5512    1.4585 H   0  0  0  0  0  0  0  0  0  0  0  0
    6.0603   -2.4646    0.3127 H   0  0  0  0  0  0  0  0  0  0  0  0
    6.6524   -0.3780   -0.8252 H   0  0  0  0  0  0  0  0  0  0  0  0
    7.2702    1.6727   -1.9640 H   0  0  0  0  0  0  0  0  0  0  0  0
    6.6892    3.8939   -2.8453 H   0  0  0  0  0  0  0  0  0  0  0  0
    4.3889    4.7522   -2.6366 H   0  0  0  0  0  0  0  0  0  0  0  0
    2.7300    4.6549    0.2664 H   0  0  0  0  0  0  0  0  0  0  0  0
    1.1628    6.1121    1.4687 H   0  0  0  0  0  0  0  0  0  0  0  0
   -0.4036    7.5698    2.6676 H   0  0  0  0  0  0  0  0  0  0  0  0
   -1.9679    9.0280    3.8654 H   0  0  0  0  0  0  0  0  0  0  0  0
   -3.5444   10.4985    5.0709 H   0  0  0  0  0  0  0  0  0  0  0  0
   -5.7747   11.5293    5.2620 H   0  0  0  0  0  0  0  0  0  0  0  0
   -7.5185   11.0538    3.5631 H   0  0  0  0  0  0  0  0  0  0  0  0
   -7.0316    9.5485    1.6744 H   0  0  0  0  0  0  0  0  0  0  0  0
   -5.4547    8.0770    0.4670 H   0  0  0  0  0  0  0  0  0  0  0  0
   -3.8891    6.6171   -0.7290 H   0  0  0  0  0  0  0  0  0  0  0  0
   -2.3247    5.1574   -1.9256 H   0  0  0  0  0  0  0  0  0  0  0  0
   -0.7609    3.6897   -3.1176 H   0  0  0  0  0  0  0  0  0  0  0  0
   -0.0427    1.0884   -1.7404 H   0  0  0  0  0  0  0  0  0  0  0  0
   -1.2963   -0.7364   -0.7391 H   0  0  0  0  0  0  0  0  0  0  0  0
   -2.5543   -2.5831    0.2745 H   0  0  0  0  0  0  0  0  0  0  0  0
   -3.8084   -4.4291    1.2881 H   0  0  0  0  0  0  0  0  0  0  0  0
   -5.0732   -6.2902    2.3083 H   0  0  0  0  0  0  0  0  0  0  0  0
   -5.9004   -8.6088    2.2102 H   0  0  0  0  0  0  0  0  0  0  0  0
   -5.3744  -10.0399    0.2535 H   0  0  0  0  0  0  0  0  0  0  0  0
   -4.0215   -9.1516   -1.6040 H   0  0  0  0  0  0  0  0  0  0  0  0
   -2.7562   -7.2911   -2.6252 H   0  0  0  0  0  0  0  0  0  0  0  0
   -1.5014   -5.4431   -3.6376 H   0  0  0  0  0  0  0  0  0  0  0  0
   -0.2480   -3.5942   -4.6513 H   0  0  0  0  0  0  0  0  0  0  0  0
    1.0030   -1.7416   -5.6605 H   0  0  0  0  0  0  0  0  0  0  0  0
    2.2442    0.0692   -6.6895 H   0  0  0  0  0  0  0  0  0  0  0  0
    3.0905    2.3774   -6.6573 H   0  0  0  0  0  0  0  0  0  0  0  0
    2.6264    3.8470   -4.7371 H   0  0  0  0  0  0  0  0  0  0  0  0
    2.0099    1.2383   -0.2665 H   0  0  0  0  0  0  0  0  0  0  0  0
    1.4067   -0.8424    0.8409 H   0  0  0  0  0  0  0  0  0  0  0  0
    0.8071   -2.9280    1.9811 H   0  0  0  0  0  0  0  0  0  0  0  0
    0.2067   -5.0138    3.1201 H   0  0  0  0  0  0  0  0  0  0  0  0
   -0.3969   -7.1164    4.2703 H   0  0  0  0  0  0  0  0  0  0  0  0
    0.2469   -9.3330    5.1321 H   0  0  0  0  0  0  0  0  0  0  0  0
  1  2  4  0
  2  3  4  0
  3  4  4  0
  4  5  4  0
  5  6  4  0
  6  7  4  0
  7  8  4  0
  8  9  4  0
  9 10  4  0
 10 11  4  0
 11 12  4  0
 12 13  4  0
 13 14  4  0
 14 15  4  0
 15 16  1  0
 16 17  4  0
 17 18  4  0
 18 19  4  0
 19 20  4  0
 20 21  4  0
 21 22  4  0
 22 23  4  0
 23 24  4  0
 24 25  4  0
 25 26  4  0
 26 27  4  0
 27 28  4  0
 28 29  4  0
 29 30  4  0
 30 31  4  0
 31 32  4  0
 32 33  4  0
 33 34  4  0
 34 35  4  0
 35 36  4  0
 36 37  4  0
 37 38  1  0
 38 39  4  0
 39 40  4  0
 40 41  4  0
 41 42  4  0
 42 43  4  0
 43 44  4  0
 44 45  4  0
 45 46  4  0
 46 47  4  0
 47 48  4  0
 48 49  4  0
 49 50  4  0
 50 51  4  0
 51 52  4  0
 52 53  4  0
 53 54  4  0
 54 55  4  0
 55 56  4  0
 56 57  4  0
 57 58  4  0
 58 59  4  0
 59 60  4  0
 60 61  4  0
 61 62  4  0
 62 63  4  0
 15 64  4  0
 64 65  4  0
 65 66  4  0
 66 67  4  0
 67 68  4  0
 68 69  4  0
 69 70  4  0
 70 71  4  0
 71 72  4  0
 72 73  4  0
 73 74  4  0
 74  1  4  0
 72  3  4  0
 70  5  4  0
 68  7  4  0
 66  9  4  0
 64 11  4  0
 37 16  4  0
 63 38  4  0
 35 18  4  0
 60 39  4  0
 33 20  4  0
 58 41  4  0
 31 22  4  0
 56 43  4  0
 29 24  4  0
 54 45  4  0
 52 47  4  0
  1 75  1  0
  2 76  1  0
  4 77  1  0
  6 78  1  0
  8 79  1  0
 10 80  1  0
 12 81  1  0
 13 82  1  0
 14 83  1  0
 17 84  1  0
 19 85  1  0
 21 86  1  0
 23 87  1  0
 25 88  1  0
 26 89  1  0
 27 90  1  0
 28 91  1  0
 30 92  1  0
 32 93  1  0
 34 94  1  0
 36 95  1  0
 40 96  1  0
 42 97  1  0
 44 98  1  0
 46 99  1  0
 48100  1  0
 49101  1  0
 50102  1  0
 51103  1  0
 53104  1  0
 55105  1  0
 57106  1  0
 59107  1  0
 61108  1  0
 62109  1  0
 63110  1  0
 65111  1  0
 67112  1  0
 69113  1  0
 71114  1  0
 73115  1  0
 74116  1  0
M  END
