
     RDKit          3D

116132  0  0  0  0  0  0  0  0999 V2000
  -10.3249  -10.6580    1.2771 C   0  0  0  0  0  0  0  0  0  0  0  0
  -10.7797  -10.0022    2.4168 C   0  0  0  0  0  0  0  0  0  0  0  0
  -10.2571   -8.7536    2.7575 C   0  0  0  0  0  0  0  0  0  0  0  0
   -9.2723   -8.1450    1.9618 C   0  0  0  0  0  0  0  0  0  0  0  0
   -8.7364   -6.8890    2.2910 C   0  0  0  0  0  0  0  0  0  0  0  0
   -7.7513   -6.2806    1.4947 C   0  0  0  0  0  0  0  0  0  0  0  0
   -7.2153   -5.0240    1.8241 C   0  0  0  0  0  0  0  0  0  0  0  0
   -6.2302   -4.4145    1.0286 C   0  0  0  0  0  0  0  0  0  0  0  0
   -5.6944   -3.1578    1.3581 C   0  0  0  0  0  0  0  0  0  0  0  0
   -4.7089   -2.5485    0.5630 C   0  0  0  0  0  0  0  0  0  0  0  0
   -4.1727   -1.2918    0.8931 C   0  0  0  0  0  0  0  0  0  0  0  0
   -3.1872   -0.6831    0.0981 C   0  0  0  0  0  0  0  0  0  0  0  0
   -2.6481    0.5728    0.4295 C   0  0  0  0  0  0  0  0  0  0  0  0
   -1.6571    1.1797   -0.3604 C   0  0  0  0  0  0  0  0  0  0  0  0
   -1.1015    2.4939    0.0109 C   0  0  0  0  0  0  0  0  0  0  0  0
   -1.9368    3.6264   -0.0827 C   0  0  0  0  0  0  0  0  0  0  0  0
   -1.4837    4.9151    0.2414 C   0  0  0  0  0  0  0  0  0  0  0  0
   -2.3246    6.0365    0.1422 C   0  0  0  0  0  0  0  0  0  0  0  0
   -1.8689    7.3249    0.4679 C   0  0  0  0  0  0  0  0  0  0  0  0
   -2.7087    8.4470    0.3692 C   0  0  0  0  0  0  0  0  0  0  0  0
   -2.2527    9.7356    0.6950 C   0  0  0  0  0  0  0  0  0  0  0  0
   -3.0929   10.8577    0.5958 C   0  0  0  0  0  0  0  0  0  0  0  0
   -2.6365   12.1458    0.9215 C   0  0  0  0  0  0  0  0  0  0  0  0
   -3.4754   13.2683    0.8225 C   0  0  0  0  0  0  0  0  0  0  0  0
   -3.0065   14.5414    1.1500 C   0  0  0  0  0  0  0  0  0  0  0  0
   -1.6940   14.7089    1.5803 C   0  0  0  0  0  0  0  0  0  0  0  0
   -0.8483   13.6035    1.6837 C   0  0  0  0  0  0  0  0  0  0  0  0
   -1.3054   12.3157    1.3578 C   0  0  0  0  0  0  0  0  0  0  0  0
   -0.4665   11.1933    1.4564 C   0  0  0  0  0  0  0  0  0  0  0  0
   -0.9240    9.9056    1.1303 C   0  0  0  0  0  0  0  0  0  0  0  0
   -0.0844    8.7834    1.2288 C   0  0  0  0  0  0  0  0  0  0  0  0
   -0.5406    7.4953    0.9028 C   0  0  0  0  0  0  0  0  0  0  0  0
    0.2994    6.3734    1.0009 C   0  0  0  0  0  0  0  0  0  0  0  0
   -0.1571    5.0856    0.6741 C   0  0  0  0  0  0  0  0  0  0  0  0
    0.6810    3.9631    0.7701 C   0  0  0  0  0  0  0  0  0  0  0  0
    0.2344    2.6653    0.4464 C   0  0  0  0  0  0  0  0  0  0  0  0
    1.1795    1.5415    0.5861 C   0  0  0  0  0  0  0  0  0  0  0  0
    2.2994    1.4386   -0.2564 C   0  0  0  0  0  0  0  0  0  0  0  0
    3.2118    0.3741   -0.1430 C   0  0  0  0  0  0  0  0  0  0  0  0
    4.3281    0.2714   -0.9898 C   0  0  0  0  0  0  0  0  0  0  0  0
    5.2392   -0.7927   -0.8772 C   0  0  0  0  0  0  0  0  0  0  0  0
    6.3559   -0.8946   -1.7241 C   0  0  0  0  0  0  0  0  0  0  0  0
    7.2676   -1.9580   -1.6121 C   0  0  0  0  0  0  0  0  0  0  0  0
    8.3841   -2.0596   -2.4593 C   0  0  0  0  0  0  0  0  0  0  0  0
    9.2962   -3.1227   -2.3473 C   0  0  0  0  0  0  0  0  0  0  0  0
   10.4126   -3.2233   -3.1949 C   0  0  0  0  0  0  0  0  0  0  0  0
   11.3244   -4.2860   -3.0830 C   0  0  0  0  0  0  0  0  0  0  0  0
   12.4408   -4.3873   -3.9299 C   0  0  0  0  0  0  0  0  0  0  0  0
   13.3375   -5.4496   -3.8058 C   0  0  0  0  0  0  0  0  0  0  0  0
   13.1300   -6.4236   -2.8342 C   0  0  0  0  0  0  0  0  0  0  0  0
   12.0255   -6.3369   -1.9852 C   0  0  0  0  0  0  0  0  0  0  0  0
   11.1140   -5.2739   -2.0977 C   0  0  0  0  0  0  0  0  0  0  0  0
    9.9977   -5.1723   -1.2510 C   0  0  0  0  0  0  0  0  0  0  0  0
    9.0862   -4.1088   -1.3639 C   0  0  0  0  0  0  0  0  0  0  0  0
    7.9695   -4.0072   -0.5171 C   0  0  0  0  0  0  0  0  0  0  0  0
    7.0576   -2.9439   -0.6291 C   0  0  0  0  0  0  0  0  0  0  0  0
    5.9407   -2.8425    0.2177 C   0  0  0  0  0  0  0  0  0  0  0  0
    5.0287   -1.7790    0.1056 C   0  0  0  0  0  0  0  0  0  0  0  0
    3.9114   -1.6779    0.9519 C   0  0  0  0  0  0  0  0  0  0  0  0
    3.0013   -0.6134    0.8401 C   0  0  0  0  0  0  0  0  0  0  0  0
    1.8866   -0.5109    1.6853 C   0  0  0  0  0  0  0  0  0  0  0  0
    0.9914    0.5550    1.5620 C   0  0  0  0  0  0  0  0  0  0  0  0
   -1.2179    0.5074   -1.5074 C   0  0  0  0  0  0  0  0  0  0  0  0
   -1.7432   -0.7411   -1.8502 C   0  0  0  0  0  0  0  0  0  0  0  0
   -2.7268   -1.3483   -1.0559 C   0  0  0  0  0  0  0  0  0  0  0  0
   -3.2616   -2.6047   -1.3851 C   0  0  0  0  0  0  0  0  0  0  0  0
   -4.2478   -3.2127   -0.5900 C   0  0  0  0  0  0  0  0  0  0  0  0
   -4.7841   -4.4692   -0.9197 C   0  0  0  0  0  0  0  0  0  0  0  0
   -5.7696   -5.0782   -0.1245 C   0  0  0  0  0  0  0  0  0  0  0  0
   -6.3055   -6.3348   -0.4542 C   0  0  0  0  0  0  0  0  0  0  0  0
   -7.2907   -6.9443    0.3410 C   0  0  0  0  0  0  0  0  0  0  0  0
   -7.8262   -8.2010    0.0107 C   0  0  0  0  0  0  0  0  0  0  0  0
   -8.8110   -8.8101    0.8060 C   0  0  0  0  0  0  0  0  0  0  0  0
   -9.3468  -10.0663    0.4763 C   0  0  0  0  0  0  0  0  0  0  0  0
  -10.7305  -11.6303    1.0099 H   0  0  0  0  0  0  0  0  0  0  0  0
  -11.5413  -10.4611    3.0418 H   0  0  0  0  0  0  0  0  0  0  0  0
  -10.6256   -8.2569    3.6522 H   0  0  0  0  0  0  0  0  0  0  0  0
   -9.0925   -6.3762    3.1827 H   0  0  0  0  0  0  0  0  0  0  0  0
   -7.5713   -4.5116    2.7162 H   0  0  0  0  0  0  0  0  0  0  0  0
   -6.0504   -2.6447    2.2498 H   0  0  0  0  0  0  0  0  0  0  0  0
   -4.5283   -0.7788    1.7849 H   0  0  0  0  0  0  0  0  0  0  0  0
   -2.9950    1.0860    1.3250 H   0  0  0  0  0  0  0  0  0  0  0  0
   -2.9623    3.4938   -0.4271 H   0  0  0  0  0  0  0  0  0  0  0  0
   -3.3514    5.9039   -0.1943 H   0  0  0  0  0  0  0  0  0  0  0  0
   -3.7357    8.3152    0.0329 H   0  0  0  0  0  0  0  0  0  0  0  0
   -4.1197   10.7271    0.2593 H   0  0  0  0  0  0  0  0  0  0  0  0
   -4.5045   13.1584    0.4880 H   0  0  0  0  0  0  0  0  0  0  0  0
   -3.6667   15.4010    1.0686 H   0  0  0  0  0  0  0  0  0  0  0  0
   -1.3269   15.6995    1.8357 H   0  0  0  0  0  0  0  0  0  0  0  0
    0.1744   13.7549    2.0218 H   0  0  0  0  0  0  0  0  0  0  0  0
    0.5602   11.3253    1.7928 H   0  0  0  0  0  0  0  0  0  0  0  0
    0.9425    8.9151    1.5651 H   0  0  0  0  0  0  0  0  0  0  0  0
    1.3264    6.5048    1.3374 H   0  0  0  0  0  0  0  0  0  0  0  0
    1.7069    4.0931    1.1145 H   0  0  0  0  0  0  0  0  0  0  0  0
    2.4555    2.1984   -1.0207 H   0  0  0  0  0  0  0  0  0  0  0  0
    4.4903    1.0330   -1.7504 H   0  0  0  0  0  0  0  0  0  0  0  0
    6.5180   -0.1326   -2.4845 H   0  0  0  0  0  0  0  0  0  0  0  0
    8.5464   -1.2978   -3.2197 H   0  0  0  0  0  0  0  0  0  0  0  0
   10.5750   -2.4613   -3.9550 H   0  0  0  0  0  0  0  0  0  0  0  0
   12.6200   -3.6357   -4.6955 H   0  0  0  0  0  0  0  0  0  0  0  0
   14.1969   -5.5151   -4.4679 H   0  0  0  0  0  0  0  0  0  0  0  0
   13.8269   -7.2518   -2.7357 H   0  0  0  0  0  0  0  0  0  0  0  0
   11.8807   -7.1083   -1.2322 H   0  0  0  0  0  0  0  0  0  0  0  0
    9.8359   -5.9347   -0.4911 H   0  0  0  0  0  0  0  0  0  0  0  0
    7.8075   -4.7699    0.2427 H   0  0  0  0  0  0  0  0  0  0  0  0
    5.7779   -3.6051    0.9773 H   0  0  0  0  0  0  0  0  0  0  0  0
    3.7458   -2.4412    1.7101 H   0  0  0  0  0  0  0  0  0  0  0  0
    1.7013   -1.2633    2.4484 H   0  0  0  0  0  0  0  0  0  0  0  0
    0.1368    0.6068    2.2335 H   0  0  0  0  0  0  0  0  0  0  0  0
   -0.4543    0.9522   -2.1422 H   0  0  0  0  0  0  0  0  0  0  0  0
   -1.3719   -1.2369   -2.7443 H   0  0  0  0  0  0  0  0  0  0  0  0
   -2.9026   -3.1185   -2.2750 H   0  0  0  0  0  0  0  0  0  0  0  0
   -4.4271   -4.9826   -1.8107 H   0  0  0  0  0  0  0  0  0  0  0  0
   -5.9493   -6.8479   -1.3458 H   0  0  0  0  0  0  0  0  0  0  0  0
   -7.4706   -8.7145   -0.8808 H   0  0  0  0  0  0  0  0  0  0  0  0
   -9.0043  -10.5947   -0.4106 H   0  0  0  0  0  0  0  0  0  0  0  0
  1  2  4  0
  2  3  4  0
  3  4  4  0
  4  5  4  0
  5  6  4  0
  6  7  4  0
  7  8  4  0
  8  9  4  0
  9 10  4  0
 10 11  4  0
 11 12  4  0
 12 13  4  0
 13 14  4  0
 14 15  1  0
 15 16  4  0
 16 17  4  0
 17 18  4  0
 18 19  4  0
 19 20  4  0
 20 21  4  0
 21 22  4  0
 22 23  4  0
 23 24  4  0
 24 25  4  0
 25 26  4  0
 26 27  4  0
 27 28  4  0
 28 29  4  0
 29 30  4  0
 30 31  4  0
 31 32  4  0
 32 33  4  0
 33 34  4  0
 34 35  4  0
 35 36  4  0
 36 37  1  0
 37 38  4  0
 38 39  4  0
 39 40  4  0
 40 41  4  0
 41 42  4  0
 42 43  4  0
 43 44  4  0
 44 45  4  0
 45 46  4  0
 46 47  4  0
 47 48  4  0
 48 49  4  0
 49 50  4  0
 50 51  4  0
 51 52  4  0
 52 53  4  0
 53 54  4  0
 54 55  4  0
 55 56  4  0
 56 57  4  0
 57 58  4  0
 58 59  4  0
 59 60  4  0
 60 61  4  0
 61 62  4  0
 14 63  4  0
 63 64  4  0
 64 65  4  0
 65 66  4  0
 66 67  4  0
 67 68  4  0
 68 69  4  0
 69 70  4  0
 70 71  4  0
 71 72  4  0
 72 73  4  0
 73 74  4  0
 74  1  4  0
 73  4  4  0
 71  6  4  0
 69  8  4  0
 67 10  4  0
 65 12  4  0
 36 15  4  0
 62 37  4  0
 34 17  4  0
 60 39  4  0
 32 19  4  0
 58 41  4  0
 30 21  4  0
 56 43  4  0
 28 23  4  0
 54 45  4  0
 52 47  4  0
  1 75  1  0
  2 76  1  0
  3 77  1  0
  5 78  1  0
  7 79  1  0
  9 80  1  0
 11 81  1  0
 13 82  1  0
 16 83  1  0
 18 84  1  0
 20 85  1  0
 22 86  1  0
 24 87  1  0
 25 88  1  0
 26 89  1  0
 27 90  1  0
 29 91  1  0
 31 92  1  0
 33 93  1  0
 35 94  1  0
 38 95  1  0
 40 96  1  0
 42 97  1  0
 44 98  1  0
 46 99  1  0
 48100  1  0
 49101  1  0
 50102  1  0
 51103  1  0
 53104  1  0
 55105  1  0
 57106  1  0
 59107  1  0
 61108  1  0
 62109  1  0
 63110  1  0
 64111  1  0
 66112  1  0
 68113  1  0
 70114  1  0
 72115  1  0
 74116  1  0
M  END
