
     RDKit          3D

116132  0  0  0  0  0  0  0  0999 V2000
   -1.8240   -4.2581   -6.8775 C   0  0  0  0  0  0  0  0  0  0  0  0
   -0.7061   -3.4304   -6.8660 C   0  0  0  0  0  0  0  0  0  0  0  0
   -0.3186   -2.8026   -5.6814 C   0  0  0  0  0  0  0  0  0  0  0  0
   -1.0455   -2.9948   -4.4937 C   0  0  0  0  0  0  0  0  0  0  0  0
   -0.6785   -2.3628   -3.2923 C   0  0  0  0  0  0  0  0  0  0  0  0
   -1.3899   -2.5359   -2.0743 C   0  0  0  0  0  0  0  0  0  0  0  0
   -2.5017   -3.4019   -2.1105 C   0  0  0  0  0  0  0  0  0  0  0  0
   -2.8829   -4.0273   -3.3122 C   0  0  0  0  0  0  0  0  0  0  0  0
   -2.1712   -3.8346   -4.5046 C   0  0  0  0  0  0  0  0  0  0  0  0
   -2.5524   -4.4599   -5.7042 C   0  0  0  0  0  0  0  0  0  0  0  0
   -3.2355   -3.6390   -0.9440 C   0  0  0  0  0  0  0  0  0  0  0  0
   -2.8813   -3.0681    0.2830 C   0  0  0  0  0  0  0  0  0  0  0  0
   -3.6389   -3.3621    1.4304 C   0  0  0  0  0  0  0  0  0  0  0  0
   -3.3159   -2.8271    2.6851 C   0  0  0  0  0  0  0  0  0  0  0  0
   -4.0847   -3.1103    3.8275 C   0  0  0  0  0  0  0  0  0  0  0  0
   -3.7575   -2.5700    5.0818 C   0  0  0  0  0  0  0  0  0  0  0  0
   -4.5275   -2.8461    6.2240 C   0  0  0  0  0  0  0  0  0  0  0  0
   -4.1901   -2.2983    7.4626 C   0  0  0  0  0  0  0  0  0  0  0  0
   -3.0801   -1.4667    7.5743 C   0  0  0  0  0  0  0  0  0  0  0  0
   -2.3051   -1.1838    6.4485 C   0  0  0  0  0  0  0  0  0  0  0  0
   -2.6304   -1.7298    5.1958 C   0  0  0  0  0  0  0  0  0  0  0  0
   -1.8605   -1.4566    4.0532 C   0  0  0  0  0  0  0  0  0  0  0  0
   -2.1937   -1.9923    2.7971 C   0  0  0  0  0  0  0  0  0  0  0  0
   -1.4355   -1.7080    1.6460 C   0  0  0  0  0  0  0  0  0  0  0  0
   -1.7693   -2.2043    0.3620 C   0  0  0  0  0  0  0  0  0  0  0  0
   -1.0492   -1.8868   -0.8352 C   0  0  0  0  0  0  0  0  0  0  0  0
    0.0392   -0.8647   -0.8238 C   0  0  0  0  0  0  0  0  0  0  0  0
    1.3773   -1.3092   -0.8593 C   0  0  0  0  0  0  0  0  0  0  0  0
    2.4547   -0.4153   -0.9622 C   0  0  0  0  0  0  0  0  0  0  0  0
    3.7819   -0.8721   -1.0181 C   0  0  0  0  0  0  0  0  0  0  0  0
    4.8601    0.0210   -1.1360 C   0  0  0  0  0  0  0  0  0  0  0  0
    6.1876   -0.4357   -1.1960 C   0  0  0  0  0  0  0  0  0  0  0  0
    7.2661    0.4570   -1.3159 C   0  0  0  0  0  0  0  0  0  0  0  0
    8.5933   -0.0009   -1.3766 C   0  0  0  0  0  0  0  0  0  0  0  0
    9.6715    0.8914   -1.4973 C   0  0  0  0  0  0  0  0  0  0  0  0
   10.9985    0.4341   -1.5579 C   0  0  0  0  0  0  0  0  0  0  0  0
   12.0591    1.3334   -1.6782 C   0  0  0  0  0  0  0  0  0  0  0  0
   11.8071    2.7003   -1.7395 C   0  0  0  0  0  0  0  0  0  0  0  0
   10.4942    3.1701   -1.6804 C   0  0  0  0  0  0  0  0  0  0  0  0
    9.4160    2.2776   -1.5593 C   0  0  0  0  0  0  0  0  0  0  0  0
    8.0888    2.7343   -1.4985 C   0  0  0  0  0  0  0  0  0  0  0  0
    7.0107    1.8409   -1.3771 C   0  0  0  0  0  0  0  0  0  0  0  0
    5.6830    2.2974   -1.3162 C   0  0  0  0  0  0  0  0  0  0  0  0
    4.6045    1.4044   -1.1973 C   0  0  0  0  0  0  0  0  0  0  0  0
    3.2767    1.8605   -1.1395 C   0  0  0  0  0  0  0  0  0  0  0  0
    2.1987    0.9667   -1.0246 C   0  0  0  0  0  0  0  0  0  0  0  0
    0.8719    1.4222   -0.9629 C   0  0  0  0  0  0  0  0  0  0  0  0
   -0.2171    0.5344   -0.8390 C   0  0  0  0  0  0  0  0  0  0  0  0
   -1.5876    1.1043   -0.6805 C   0  0  0  0  0  0  0  0  0  0  0  0
   -1.9948    1.6137    0.6023 C   0  0  0  0  0  0  0  0  0  0  0  0
   -1.1314    1.7479    1.7228 C   0  0  0  0  0  0  0  0  0  0  0  0
   -1.5605    2.2333    2.9714 C   0  0  0  0  0  0  0  0  0  0  0  0
   -0.6756    2.3652    4.0563 C   0  0  0  0  0  0  0  0  0  0  0  0
   -1.1132    2.8356    5.3054 C   0  0  0  0  0  0  0  0  0  0  0  0
   -0.2314    2.9661    6.3912 C   0  0  0  0  0  0  0  0  0  0  0  0
   -0.6834    3.4337    7.6260 C   0  0  0  0  0  0  0  0  0  0  0  0
   -2.0218    3.7764    7.7915 C   0  0  0  0  0  0  0  0  0  0  0  0
   -2.9100    3.6526    6.7221 C   0  0  0  0  0  0  0  0  0  0  0  0
   -2.4700    3.1841    5.4729 C   0  0  0  0  0  0  0  0  0  0  0  0
   -3.3495    3.0567    4.3852 C   0  0  0  0  0  0  0  0  0  0  0  0
   -2.9067    2.5894    3.1353 C   0  0  0  0  0  0  0  0  0  0  0  0
   -3.7753    2.4736    2.0402 C   0  0  0  0  0  0  0  0  0  0  0  0
   -3.3346    2.0094    0.7873 C   0  0  0  0  0  0  0  0  0  0  0  0
   -4.2344    1.9370   -0.2811 C   0  0  0  0  0  0  0  0  0  0  0  0
   -3.8389    1.5158   -1.5553 C   0  0  0  0  0  0  0  0  0  0  0  0
   -4.7761    1.4939   -2.6038 C   0  0  0  0  0  0  0  0  0  0  0  0
   -4.4223    1.0982   -3.9010 C   0  0  0  0  0  0  0  0  0  0  0  0
   -5.3621    1.0648   -4.9457 C   0  0  0  0  0  0  0  0  0  0  0  0
   -4.9873    0.6688   -6.2303 C   0  0  0  0  0  0  0  0  0  0  0  0
   -3.6692    0.3058   -6.4863 C   0  0  0  0  0  0  0  0  0  0  0  0
   -2.7262    0.3406   -5.4581 C   0  0  0  0  0  0  0  0  0  0  0  0
   -3.0904    0.7309   -4.1586 C   0  0  0  0  0  0  0  0  0  0  0  0
   -2.1581    0.7580   -3.1059 C   0  0  0  0  0  0  0  0  0  0  0  0
   -2.5047    1.1174   -1.7805 C   0  0  0  0  0  0  0  0  0  0  0  0
   -2.1303   -4.7483   -7.7979 H   0  0  0  0  0  0  0  0  0  0  0  0
   -0.1351   -3.2723   -7.7771 H   0  0  0  0  0  0  0  0  0  0  0  0
    0.5574   -2.1578   -5.6903 H   0  0  0  0  0  0  0  0  0  0  0  0
    0.1903   -1.7080   -3.3160 H   0  0  0  0  0  0  0  0  0  0  0  0
   -3.7539   -4.6807   -3.3201 H   0  0  0  0  0  0  0  0  0  0  0  0
   -3.4235   -5.1104   -5.7312 H   0  0  0  0  0  0  0  0  0  0  0  0
   -4.0994   -4.3014   -0.9890 H   0  0  0  0  0  0  0  0  0  0  0  0
   -4.5021   -4.0205    1.3453 H   0  0  0  0  0  0  0  0  0  0  0  0
   -4.9541   -3.7588    3.7380 H   0  0  0  0  0  0  0  0  0  0  0  0
   -5.3998   -3.4918    6.1549 H   0  0  0  0  0  0  0  0  0  0  0  0
   -4.7948   -2.5203    8.3380 H   0  0  0  0  0  0  0  0  0  0  0  0
   -2.8160   -1.0365    8.5367 H   0  0  0  0  0  0  0  0  0  0  0  0
   -1.4431   -0.5286    6.5539 H   0  0  0  0  0  0  0  0  0  0  0  0
   -0.9921   -0.8071    4.1407 H   0  0  0  0  0  0  0  0  0  0  0  0
   -0.5578   -1.0758    1.7580 H   0  0  0  0  0  0  0  0  0  0  0  0
    1.5714   -2.3817   -0.8313 H   0  0  0  0  0  0  0  0  0  0  0  0
    3.9786   -1.9421   -0.9728 H   0  0  0  0  0  0  0  0  0  0  0  0
    6.3851   -1.5055   -1.1504 H   0  0  0  0  0  0  0  0  0  0  0  0
    8.7922   -1.0701   -1.3290 H   0  0  0  0  0  0  0  0  0  0  0  0
   11.2159   -0.6306   -1.5117 H   0  0  0  0  0  0  0  0  0  0  0  0
   13.0807    0.9653   -1.7240 H   0  0  0  0  0  0  0  0  0  0  0  0
   12.6314    3.4024   -1.8332 H   0  0  0  0  0  0  0  0  0  0  0  0
   10.3176    4.2422   -1.7298 H   0  0  0  0  0  0  0  0  0  0  0  0
    7.8936    3.8041   -1.5476 H   0  0  0  0  0  0  0  0  0  0  0  0
    5.4860    3.3673   -1.3629 H   0  0  0  0  0  0  0  0  0  0  0  0
    3.0783    2.9301   -1.1857 H   0  0  0  0  0  0  0  0  0  0  0  0
    0.6709    2.4932   -0.9935 H   0  0  0  0  0  0  0  0  0  0  0  0
   -0.0861    1.4609    1.6283 H   0  0  0  0  0  0  0  0  0  0  0  0
    0.3717    2.0993    3.9236 H   0  0  0  0  0  0  0  0  0  0  0  0
    0.8180    2.7019    6.2823 H   0  0  0  0  0  0  0  0  0  0  0  0
    0.0099    3.5290    8.4576 H   0  0  0  0  0  0  0  0  0  0  0  0
   -2.3759    4.1403    8.7524 H   0  0  0  0  0  0  0  0  0  0  0  0
   -3.9523    3.9258    6.8713 H   0  0  0  0  0  0  0  0  0  0  0  0
   -4.3969    3.3239    4.5126 H   0  0  0  0  0  0  0  0  0  0  0  0
   -4.8196    2.7560    2.1657 H   0  0  0  0  0  0  0  0  0  0  0  0
   -5.2696    2.2366   -0.1213 H   0  0  0  0  0  0  0  0  0  0  0  0
   -5.8049    1.7906   -2.4064 H   0  0  0  0  0  0  0  0  0  0  0  0
   -6.3968    1.3452   -4.7628 H   0  0  0  0  0  0  0  0  0  0  0  0
   -5.7245    0.6425   -7.0282 H   0  0  0  0  0  0  0  0  0  0  0  0
   -3.3723   -0.0092   -7.4829 H   0  0  0  0  0  0  0  0  0  0  0  0
   -1.7018    0.0480   -5.6757 H   0  0  0  0  0  0  0  0  0  0  0  0
   -1.1287    0.4893   -3.3310 H   0  0  0  0  0  0  0  0  0  0  0  0
  1  2  4  0
  2  3  4  0
  3  4  4  0
  4  5  4  0
  5  6  4  0
  6  7  4  0
  7  8  4  0
  8  9  4  0
  9 10  4  0
  7 11  4  0
 11 12  4  0
 12 13  4  0
 13 14  4  0
 14 15  4  0
 15 16  4  0
 16 17  4  0
 17 18  4  0
 18 19  4  0
 19 20  4  0
 20 21  4  0
 21 22  4  0
 22 23  4  0
 23 24  4  0
 24 25  4  0
 25 26  4  0
 26 27  1  0
 27 28  4  0
 28 29  4  0
 29 30  4  0
 30 31  4  0
 31 32  4  0
 32 33  4  0
 33 34  4  0
 34 35  4  0
 35 36  4  0
 36 37  4  0
 37 38  4  0
 38 39  4  0
 39 40  4  0
 40 41  4  0
 41 42  4  0
 42 43  4  0
 43 44  4  0
 44 45  4  0
 45 46  4  0
 46 47  4  0
 47 48  4  0
 48 49  1  0
 49 50  4  0
 50 51  4  0
 51 52  4  0
 52 53  4  0
 53 54  4  0
 54 55  4  0
 55 56  4  0
 56 57  4  0
 57 58  4  0
 58 59  4  0
 59 60  4  0
 60 61  4  0
 61 62  4  0
 62 63  4  0
 63 64  4  0
 64 65  4  0
 65 66  4  0
 66 67  4  0
 67 68  4  0
 68 69  4  0
 69 70  4  0
 70 71  4  0
 71 72  4  0
 72 73  4  0
 73 74  4  0
 10  1  4  0
 25 12  4  0
 48 27  4  0
 74 49  4  0
  9  4  4  0
 23 14  4  0
 46 29  4  0
 63 50  4  0
 74 65  4  0
 26  6  4  0
 44 31  4  0
 61 52  4  0
 72 67  4  0
 21 16  4  0
 42 33  4  0
 59 54  4  0
 40 35  4  0
  1 75  1  0
  2 76  1  0
  3 77  1  0
  5 78  1  0
  8 79  1  0
 10 80  1  0
 11 81  1  0
 13 82  1  0
 15 83  1  0
 17 84  1  0
 18 85  1  0
 19 86  1  0
 20 87  1  0
 22 88  1  0
 24 89  1  0
 28 90  1  0
 30 91  1  0
 32 92  1  0
 34 93  1  0
 36 94  1  0
 37 95  1  0
 38 96  1  0
 39 97  1  0
 41 98  1  0
 43 99  1  0
 45100  1  0
 47101  1  0
 51102  1  0
 53103  1  0
 55104  1  0
 56105  1  0
 57106  1  0
 58107  1  0
 60108  1  0
 62109  1  0
 64110  1  0
 66111  1  0
 68112  1  0
 69113  1  0
 70114  1  0
 71115  1  0
 73116  1  0
M  END
