
     RDKit          3D

116132  0  0  0  0  0  0  0  0999 V2000
   -5.4412    4.6339   -6.1694 C   0  0  0  0  0  0  0  0  0  0  0  0
   -4.0978    4.5802   -6.5284 C   0  0  0  0  0  0  0  0  0  0  0  0
   -3.1617    4.0486   -5.6411 C   0  0  0  0  0  0  0  0  0  0  0  0
   -3.5587    3.5650   -4.3835 C   0  0  0  0  0  0  0  0  0  0  0  0
   -2.6281    3.0302   -3.4795 C   0  0  0  0  0  0  0  0  0  0  0  0
   -3.0257    2.5200   -2.2326 C   0  0  0  0  0  0  0  0  0  0  0  0
   -2.0967    1.9623   -1.3369 C   0  0  0  0  0  0  0  0  0  0  0  0
   -2.4697    1.4020   -0.0919 C   0  0  0  0  0  0  0  0  0  0  0  0
   -3.8331    1.4762    0.2596 C   0  0  0  0  0  0  0  0  0  0  0  0
   -4.7663    2.0418   -0.6285 C   0  0  0  0  0  0  0  0  0  0  0  0
   -4.3818    2.5577   -1.8750 C   0  0  0  0  0  0  0  0  0  0  0  0
   -5.3158    3.1101   -2.7697 C   0  0  0  0  0  0  0  0  0  0  0  0
   -4.9215    3.6114   -4.0218 C   0  0  0  0  0  0  0  0  0  0  0  0
   -5.8515    4.1524   -4.9248 C   0  0  0  0  0  0  0  0  0  0  0  0
   -4.2592    0.9856    1.4993 C   0  0  0  0  0  0  0  0  0  0  0  0
   -3.3643    0.4467    2.4305 C   0  0  0  0  0  0  0  0  0  0  0  0
   -3.8378   -0.0036    3.6773 C   0  0  0  0  0  0  0  0  0  0  0  0
   -2.9755   -0.5285    4.6510 C   0  0  0  0  0  0  0  0  0  0  0  0
   -3.4490   -0.9823    5.8937 C   0  0  0  0  0  0  0  0  0  0  0  0
   -2.5697   -1.4908    6.8511 C   0  0  0  0  0  0  0  0  0  0  0  0
   -1.2065   -1.5479    6.5804 C   0  0  0  0  0  0  0  0  0  0  0  0
   -0.7241   -1.1031    5.3490 C   0  0  0  0  0  0  0  0  0  0  0  0
   -1.6004   -0.5968    4.3732 C   0  0  0  0  0  0  0  0  0  0  0  0
   -1.1370   -0.1616    3.1195 C   0  0  0  0  0  0  0  0  0  0  0  0
   -1.9941    0.3567    2.1121 C   0  0  0  0  0  0  0  0  0  0  0  0
   -1.5491    0.7839    0.8129 C   0  0  0  0  0  0  0  0  0  0  0  0
   -0.1289    0.5589    0.4156 C   0  0  0  0  0  0  0  0  0  0  0  0
    0.8526    1.4393    0.9166 C   0  0  0  0  0  0  0  0  0  0  0  0
    2.2202    1.2448    0.6697 C   0  0  0  0  0  0  0  0  0  0  0  0
    3.1890    2.1212    1.1862 C   0  0  0  0  0  0  0  0  0  0  0  0
    4.5593    1.9196    0.9508 C   0  0  0  0  0  0  0  0  0  0  0  0
    5.5296    2.7957    1.4668 C   0  0  0  0  0  0  0  0  0  0  0  0
    6.9003    2.5918    1.2339 C   0  0  0  0  0  0  0  0  0  0  0  0
    7.8703    3.4677    1.7507 C   0  0  0  0  0  0  0  0  0  0  0  0
    9.2406    3.2633    1.5179 C   0  0  0  0  0  0  0  0  0  0  0  0
   10.2108    4.1384    2.0341 C   0  0  0  0  0  0  0  0  0  0  0  0
   11.5685    3.9216    1.7939 C   0  0  0  0  0  0  0  0  0  0  0  0
   11.9736    2.8281    1.0350 C   0  0  0  0  0  0  0  0  0  0  0  0
   11.0217    1.9497    0.5153 C   0  0  0  0  0  0  0  0  0  0  0  0
    9.6514    2.1544    0.7483 C   0  0  0  0  0  0  0  0  0  0  0  0
    8.6809    1.2795    0.2322 C   0  0  0  0  0  0  0  0  0  0  0  0
    7.3105    1.4848    0.4656 C   0  0  0  0  0  0  0  0  0  0  0  0
    6.3398    0.6099   -0.0512 C   0  0  0  0  0  0  0  0  0  0  0  0
    4.9694    0.8140    0.1813 C   0  0  0  0  0  0  0  0  0  0  0  0
    3.9992   -0.0603   -0.3373 C   0  0  0  0  0  0  0  0  0  0  0  0
    2.6293    0.1424   -0.1024 C   0  0  0  0  0  0  0  0  0  0  0  0
    1.6589   -0.7255   -0.6285 C   0  0  0  0  0  0  0  0  0  0  0  0
    0.2802   -0.5275   -0.4060 C   0  0  0  0  0  0  0  0  0  0  0  0
   -0.6862   -1.4402   -1.0864 C   0  0  0  0  0  0  0  0  0  0  0  0
   -0.9916   -1.2335   -2.4778 C   0  0  0  0  0  0  0  0  0  0  0  0
   -0.3521   -0.2710   -3.3046 C   0  0  0  0  0  0  0  0  0  0  0  0
   -0.6900   -0.0713   -4.6555 C   0  0  0  0  0  0  0  0  0  0  0  0
   -0.0453    0.8983   -5.4435 C   0  0  0  0  0  0  0  0  0  0  0  0
   -0.4087    1.0933   -6.7766 C   0  0  0  0  0  0  0  0  0  0  0  0
   -1.4161    0.3174   -7.3405 C   0  0  0  0  0  0  0  0  0  0  0  0
   -2.0579   -0.6552   -6.5722 C   0  0  0  0  0  0  0  0  0  0  0  0
   -1.7047   -0.8570   -5.2267 C   0  0  0  0  0  0  0  0  0  0  0  0
   -2.3384   -1.8240   -4.4337 C   0  0  0  0  0  0  0  0  0  0  0  0
   -1.9908   -2.0221   -3.0844 C   0  0  0  0  0  0  0  0  0  0  0  0
   -2.6467   -3.0070   -2.3387 C   0  0  0  0  0  0  0  0  0  0  0  0
   -2.3223   -3.2633   -1.0024 C   0  0  0  0  0  0  0  0  0  0  0  0
   -2.9986   -4.2805   -0.3052 C   0  0  0  0  0  0  0  0  0  0  0  0
   -2.7019   -4.5829    1.0310 C   0  0  0  0  0  0  0  0  0  0  0  0
   -3.3926   -5.5868    1.7331 C   0  0  0  0  0  0  0  0  0  0  0  0
   -3.0957   -5.8777    3.0748 C   0  0  0  0  0  0  0  0  0  0  0  0
   -3.7899   -6.8726    3.7836 C   0  0  0  0  0  0  0  0  0  0  0  0
   -3.4869   -7.1410    5.1194 C   0  0  0  0  0  0  0  0  0  0  0  0
   -2.4874   -6.4183    5.7637 C   0  0  0  0  0  0  0  0  0  0  0  0
   -1.7871   -5.4291    5.0719 C   0  0  0  0  0  0  0  0  0  0  0  0
   -2.0785   -5.1501    3.7266 C   0  0  0  0  0  0  0  0  0  0  0  0
   -1.3819   -4.1590    3.0167 C   0  0  0  0  0  0  0  0  0  0  0  0
   -1.6867   -3.8626    1.6775 C   0  0  0  0  0  0  0  0  0  0  0  0
   -1.0061   -2.8540    0.9708 C   0  0  0  0  0  0  0  0  0  0  0  0
   -1.3213   -2.5022   -0.3640 C   0  0  0  0  0  0  0  0  0  0  0  0
   -6.1724    5.0479   -6.8589 H   0  0  0  0  0  0  0  0  0  0  0  0
   -3.7784    4.9503   -7.4991 H   0  0  0  0  0  0  0  0  0  0  0  0
   -2.1170    4.0056   -5.9408 H   0  0  0  0  0  0  0  0  0  0  0  0
   -1.5770    2.9951   -3.7579 H   0  0  0  0  0  0  0  0  0  0  0  0
   -1.0479    1.9646   -1.6244 H   0  0  0  0  0  0  0  0  0  0  0  0
   -5.8171    2.0779   -0.3459 H   0  0  0  0  0  0  0  0  0  0  0  0
   -6.3672    3.1412   -2.4907 H   0  0  0  0  0  0  0  0  0  0  0  0
   -6.9070    4.2002   -4.6656 H   0  0  0  0  0  0  0  0  0  0  0  0
   -5.3167    1.0421    1.7547 H   0  0  0  0  0  0  0  0  0  0  0  0
   -4.9026    0.0575    3.8971 H   0  0  0  0  0  0  0  0  0  0  0  0
   -4.5113   -0.9437    6.1236 H   0  0  0  0  0  0  0  0  0  0  0  0
   -2.9514   -1.8396    7.8070 H   0  0  0  0  0  0  0  0  0  0  0  0
   -0.5189   -1.9386    7.3257 H   0  0  0  0  0  0  0  0  0  0  0  0
    0.3446   -1.1559    5.1527 H   0  0  0  0  0  0  0  0  0  0  0  0
   -0.0690   -0.2381    2.9253 H   0  0  0  0  0  0  0  0  0  0  0  0
    0.5332    2.2813    1.5309 H   0  0  0  0  0  0  0  0  0  0  0  0
    2.8705    2.9738    1.7841 H   0  0  0  0  0  0  0  0  0  0  0  0
    5.2115    3.6520    2.0590 H   0  0  0  0  0  0  0  0  0  0  0  0
    7.5552    4.3237    2.3447 H   0  0  0  0  0  0  0  0  0  0  0  0
    9.9141    4.9989    2.6297 H   0  0  0  0  0  0  0  0  0  0  0  0
   12.3081    4.6070    2.1996 H   0  0  0  0  0  0  0  0  0  0  0  0
   13.0303    2.6574    0.8467 H   0  0  0  0  0  0  0  0  0  0  0  0
   11.3582    1.1007   -0.0755 H   0  0  0  0  0  0  0  0  0  0  0  0
    8.9992    0.4244   -0.3614 H   0  0  0  0  0  0  0  0  0  0  0  0
    6.6557   -0.2458   -0.6456 H   0  0  0  0  0  0  0  0  0  0  0  0
    4.3159   -0.9142   -0.9343 H   0  0  0  0  0  0  0  0  0  0  0  0
    1.9719   -1.5688   -1.2444 H   0  0  0  0  0  0  0  0  0  0  0  0
    0.4313    0.3572   -2.8854 H   0  0  0  0  0  0  0  0  0  0  0  0
    0.7440    1.5144   -5.0187 H   0  0  0  0  0  0  0  0  0  0  0  0
    0.0928    1.8509   -7.3725 H   0  0  0  0  0  0  0  0  0  0  0  0
   -1.7023    0.4657   -8.3784 H   0  0  0  0  0  0  0  0  0  0  0  0
   -2.8412   -1.2551   -7.0302 H   0  0  0  0  0  0  0  0  0  0  0  0
   -3.1229   -2.4353   -4.8772 H   0  0  0  0  0  0  0  0  0  0  0  0
   -3.4238   -3.6020   -2.8171 H   0  0  0  0  0  0  0  0  0  0  0  0
   -3.7781   -4.8472   -0.8121 H   0  0  0  0  0  0  0  0  0  0  0  0
   -4.1788   -6.1452    1.2290 H   0  0  0  0  0  0  0  0  0  0  0  0
   -4.5769   -7.4452    3.2982 H   0  0  0  0  0  0  0  0  0  0  0  0
   -4.0336   -7.9118    5.6561 H   0  0  0  0  0  0  0  0  0  0  0  0
   -2.2528   -6.6218    6.8050 H   0  0  0  0  0  0  0  0  0  0  0  0
   -1.0127   -4.8698    5.5917 H   0  0  0  0  0  0  0  0  0  0  0  0
   -0.5978   -3.5975    3.5199 H   0  0  0  0  0  0  0  0  0  0  0  0
   -0.2069   -2.3242    1.4837 H   0  0  0  0  0  0  0  0  0  0  0  0
  1  2  4  0
  2  3  4  0
  3  4  4  0
  4  5  4  0
  5  6  4  0
  6  7  4  0
  7  8  4  0
  8  9  4  0
  9 10  4  0
 10 11  4  0
 11 12  4  0
 12 13  4  0
 13 14  4  0
  9 15  4  0
 15 16  4  0
 16 17  4  0
 17 18  4  0
 18 19  4  0
 19 20  4  0
 20 21  4  0
 21 22  4  0
 22 23  4  0
 23 24  4  0
 24 25  4  0
 25 26  4  0
 26 27  1  0
 27 28  4  0
 28 29  4  0
 29 30  4  0
 30 31  4  0
 31 32  4  0
 32 33  4  0
 33 34  4  0
 34 35  4  0
 35 36  4  0
 36 37  4  0
 37 38  4  0
 38 39  4  0
 39 40  4  0
 40 41  4  0
 41 42  4  0
 42 43  4  0
 43 44  4  0
 44 45  4  0
 45 46  4  0
 46 47  4  0
 47 48  4  0
 48 49  1  0
 49 50  4  0
 50 51  4  0
 51 52  4  0
 52 53  4  0
 53 54  4  0
 54 55  4  0
 55 56  4  0
 56 57  4  0
 57 58  4  0
 58 59  4  0
 59 60  4  0
 60 61  4  0
 61 62  4  0
 62 63  4  0
 63 64  4  0
 64 65  4  0
 65 66  4  0
 66 67  4  0
 67 68  4  0
 68 69  4  0
 69 70  4  0
 70 71  4  0
 71 72  4  0
 72 73  4  0
 73 74  4  0
 14  1  4  0
 25 16  4  0
 48 27  4  0
 74 49  4  0
 13  4  4  0
 23 18  4  0
 46 29  4  0
 59 50  4  0
 74 61  4  0
 11  6  4  0
 44 31  4  0
 57 52  4  0
 72 63  4  0
 26  8  4  0
 42 33  4  0
 70 65  4  0
 40 35  4  0
  1 75  1  0
  2 76  1  0
  3 77  1  0
  5 78  1  0
  7 79  1  0
 10 80  1  0
 12 81  1  0
 14 82  1  0
 15 83  1  0
 17 84  1  0
 19 85  1  0
 20 86  1  0
 21 87  1  0
 22 88  1  0
 24 89  1  0
 28 90  1  0
 30 91  1  0
 32 92  1  0
 34 93  1  0
 36 94  1  0
 37 95  1  0
 38 96  1  0
 39 97  1  0
 41 98  1  0
 43 99  1  0
 45100  1  0
 47101  1  0
 51102  1  0
 53103  1  0
 54104  1  0
 55105  1  0
 56106  1  0
 58107  1  0
 60108  1  0
 62109  1  0
 64110  1  0
 66111  1  0
 67112  1  0
 68113  1  0
 69114  1  0
 71115  1  0
 73116  1  0
M  END
