
     RDKit          3D

 92104  0  0  0  0  0  0  0  0999 V2000
   -9.1937   -6.4201    0.5983 C   0  0  0  0  0  0  0  0  0  0  0  0
   -8.5913   -7.0100   -0.5085 C   0  0  0  0  0  0  0  0  0  0  0  0
   -7.3240   -6.5921   -0.9173 C   0  0  0  0  0  0  0  0  0  0  0  0
   -6.6428   -5.5783   -0.2232 C   0  0  0  0  0  0  0  0  0  0  0  0
   -5.3671   -5.1464   -0.6221 C   0  0  0  0  0  0  0  0  0  0  0  0
   -4.6860   -4.1326    0.0726 C   0  0  0  0  0  0  0  0  0  0  0  0
   -3.4104   -3.7007   -0.3278 C   0  0  0  0  0  0  0  0  0  0  0  0
   -2.7286   -2.6870    0.3654 C   0  0  0  0  0  0  0  0  0  0  0  0
   -1.4541   -2.2519   -0.0385 C   0  0  0  0  0  0  0  0  0  0  0  0
   -0.7731   -1.2329    0.6481 C   0  0  0  0  0  0  0  0  0  0  0  0
    0.5571   -0.7841    0.1978 C   0  0  0  0  0  0  0  0  0  0  0  0
    1.6479   -1.6673    0.3340 C   0  0  0  0  0  0  0  0  0  0  0  0
    2.9477   -1.3119   -0.0616 C   0  0  0  0  0  0  0  0  0  0  0  0
    4.0284   -2.1988    0.0813 C   0  0  0  0  0  0  0  0  0  0  0  0
    5.3279   -1.8412   -0.3159 C   0  0  0  0  0  0  0  0  0  0  0  0
    6.4093   -2.7272   -0.1736 C   0  0  0  0  0  0  0  0  0  0  0  0
    7.7085   -2.3692   -0.5715 C   0  0  0  0  0  0  0  0  0  0  0  0
    8.7892   -3.2560   -0.4289 C   0  0  0  0  0  0  0  0  0  0  0  0
   10.0880   -2.8981   -0.8269 C   0  0  0  0  0  0  0  0  0  0  0  0
   11.1690   -3.7839   -0.6847 C   0  0  0  0  0  0  0  0  0  0  0  0
   12.4536   -3.4131   -1.0851 C   0  0  0  0  0  0  0  0  0  0  0  0
   12.6740   -2.1530   -1.6323 C   0  0  0  0  0  0  0  0  0  0  0  0
   11.6101   -1.2618   -1.7800 C   0  0  0  0  0  0  0  0  0  0  0  0
   10.3116   -1.6202   -1.3818 C   0  0  0  0  0  0  0  0  0  0  0  0
    9.2306   -0.7346   -1.5239 C   0  0  0  0  0  0  0  0  0  0  0  0
    7.9318   -1.0936   -1.1254 C   0  0  0  0  0  0  0  0  0  0  0  0
    6.8504   -0.2077   -1.2674 C   0  0  0  0  0  0  0  0  0  0  0  0
    5.5514   -0.5659   -0.8693 C   0  0  0  0  0  0  0  0  0  0  0  0
    4.4703    0.3203   -1.0109 C   0  0  0  0  0  0  0  0  0  0  0  0
    3.1715   -0.0379   -0.6124 C   0  0  0  0  0  0  0  0  0  0  0  0
    2.0902    0.8472   -0.7521 C   0  0  0  0  0  0  0  0  0  0  0  0
    0.7825    0.4980   -0.3575 C   0  0  0  0  0  0  0  0  0  0  0  0
   -0.2974    1.4834   -0.5481 C   0  0  0  0  0  0  0  0  0  0  0  0
   -0.3432    2.6528    0.2290 C   0  0  0  0  0  0  0  0  0  0  0  0
   -1.3713    3.5994    0.0741 C   0  0  0  0  0  0  0  0  0  0  0  0
   -1.4212    4.7622    0.8603 C   0  0  0  0  0  0  0  0  0  0  0  0
   -2.4512    5.7058    0.7092 C   0  0  0  0  0  0  0  0  0  0  0  0
   -2.5014    6.8672    1.4982 C   0  0  0  0  0  0  0  0  0  0  0  0
   -3.5305    7.8113    1.3478 C   0  0  0  0  0  0  0  0  0  0  0  0
   -3.5809    8.9729    2.1362 C   0  0  0  0  0  0  0  0  0  0  0  0
   -4.6103    9.9013    1.9747 C   0  0  0  0  0  0  0  0  0  0  0  0
   -5.6020    9.6808    1.0241 C   0  0  0  0  0  0  0  0  0  0  0  0
   -5.5659    8.5314    0.2333 C   0  0  0  0  0  0  0  0  0  0  0  0
   -4.5363    7.5876    0.3836 C   0  0  0  0  0  0  0  0  0  0  0  0
   -4.4858    6.4257   -0.4040 C   0  0  0  0  0  0  0  0  0  0  0  0
   -3.4556    5.4820   -0.2529 C   0  0  0  0  0  0  0  0  0  0  0  0
   -3.4060    4.3191   -1.0399 C   0  0  0  0  0  0  0  0  0  0  0  0
   -2.3770    3.3753   -0.8877 C   0  0  0  0  0  0  0  0  0  0  0  0
   -2.3289    2.2127   -1.6705 C   0  0  0  0  0  0  0  0  0  0  0  0
   -1.3012    1.2807   -1.5033 C   0  0  0  0  0  0  0  0  0  0  0  0
   -1.3897   -0.6586    1.7666 C   0  0  0  0  0  0  0  0  0  0  0  0
   -2.6567   -1.0787    2.1799 C   0  0  0  0  0  0  0  0  0  0  0  0
   -3.3378   -2.0910    1.4880 C   0  0  0  0  0  0  0  0  0  0  0  0
   -4.6133   -2.5223    1.8882 C   0  0  0  0  0  0  0  0  0  0  0  0
   -5.2952   -3.5359    1.1939 C   0  0  0  0  0  0  0  0  0  0  0  0
   -6.5717   -3.9669    1.5935 C   0  0  0  0  0  0  0  0  0  0  0  0
   -7.2535   -4.9803    0.8996 C   0  0  0  0  0  0  0  0  0  0  0  0
   -8.5296   -5.4115    1.2982 C   0  0  0  0  0  0  0  0  0  0  0  0
  -10.1806   -6.7438    0.9183 H   0  0  0  0  0  0  0  0  0  0  0  0
   -9.1067   -7.7955   -1.0550 H   0  0  0  0  0  0  0  0  0  0  0  0
   -6.8698   -7.0653   -1.7849 H   0  0  0  0  0  0  0  0  0  0  0  0
   -4.8963   -5.6071   -1.4886 H   0  0  0  0  0  0  0  0  0  0  0  0
   -2.9404   -4.1610   -1.1951 H   0  0  0  0  0  0  0  0  0  0  0  0
   -0.9850   -2.7033   -0.9114 H   0  0  0  0  0  0  0  0  0  0  0  0
    1.4738   -2.6513    0.7690 H   0  0  0  0  0  0  0  0  0  0  0  0
    3.8551   -3.1847    0.5094 H   0  0  0  0  0  0  0  0  0  0  0  0
    6.2369   -3.7132    0.2544 H   0  0  0  0  0  0  0  0  0  0  0  0
    8.6172   -4.2419   -0.0010 H   0  0  0  0  0  0  0  0  0  0  0  0
   11.0171   -4.7734   -0.2593 H   0  0  0  0  0  0  0  0  0  0  0  0
   13.2806   -4.1087   -0.9692 H   0  0  0  0  0  0  0  0  0  0  0  0
   13.6735   -1.8622   -1.9448 H   0  0  0  0  0  0  0  0  0  0  0  0
   11.8022   -0.2813   -2.2098 H   0  0  0  0  0  0  0  0  0  0  0  0
    9.4041    0.2509   -1.9524 H   0  0  0  0  0  0  0  0  0  0  0  0
    7.0225    0.7782   -1.6955 H   0  0  0  0  0  0  0  0  0  0  0  0
    4.6426    1.3067   -1.4385 H   0  0  0  0  0  0  0  0  0  0  0  0
    2.2605    1.8320   -1.1869 H   0  0  0  0  0  0  0  0  0  0  0  0
    0.4305    2.8186    0.9770 H   0  0  0  0  0  0  0  0  0  0  0  0
   -0.6456    4.9353    1.6043 H   0  0  0  0  0  0  0  0  0  0  0  0
   -1.7264    7.0385    2.2430 H   0  0  0  0  0  0  0  0  0  0  0  0
   -2.8154    9.1632    2.8851 H   0  0  0  0  0  0  0  0  0  0  0  0
   -4.6366   10.7956    2.5918 H   0  0  0  0  0  0  0  0  0  0  0  0
   -6.4048   10.4025    0.8970 H   0  0  0  0  0  0  0  0  0  0  0  0
   -6.3505    8.3768   -0.5041 H   0  0  0  0  0  0  0  0  0  0  0  0
   -5.2625    6.2517   -1.1464 H   0  0  0  0  0  0  0  0  0  0  0  0
   -4.1826    4.1443   -1.7824 H   0  0  0  0  0  0  0  0  0  0  0  0
   -3.0959    2.0176   -2.4166 H   0  0  0  0  0  0  0  0  0  0  0  0
   -1.2939    0.3858   -2.1220 H   0  0  0  0  0  0  0  0  0  0  0  0
   -0.8875    0.1305    2.3224 H   0  0  0  0  0  0  0  0  0  0  0  0
   -3.1083   -0.6021    3.0470 H   0  0  0  0  0  0  0  0  0  0  0  0
   -5.0836   -2.0598    2.7542 H   0  0  0  0  0  0  0  0  0  0  0  0
   -7.0427   -3.5051    2.4593 H   0  0  0  0  0  0  0  0  0  0  0  0
   -9.0173   -4.9627    2.1607 H   0  0  0  0  0  0  0  0  0  0  0  0
  1  2  4  0
  2  3  4  0
  3  4  4  0
  4  5  4  0
  5  6  4  0
  6  7  4  0
  7  8  4  0
  8  9  4  0
  9 10  4  0
 10 11  1  0
 11 12  4  0
 12 13  4  0
 13 14  4  0
 14 15  4  0
 15 16  4  0
 16 17  4  0
 17 18  4  0
 18 19  4  0
 19 20  4  0
 20 21  4  0
 21 22  4  0
 22 23  4  0
 23 24  4  0
 24 25  4  0
 25 26  4  0
 26 27  4  0
 27 28  4  0
 28 29  4  0
 29 30  4  0
 30 31  4  0
 31 32  4  0
 32 33  1  0
 33 34  4  0
 34 35  4  0
 35 36  4  0
 36 37  4  0
 37 38  4  0
 38 39  4  0
 39 40  4  0
 40 41  4  0
 41 42  4  0
 42 43  4  0
 43 44  4  0
 44 45  4  0
 45 46  4  0
 46 47  4  0
 47 48  4  0
 48 49  4  0
 49 50  4  0
 10 51  4  0
 51 52  4  0
 52 53  4  0
 53 54  4  0
 54 55  4  0
 55 56  4  0
 56 57  4  0
 57 58  4  0
 58  1  4  0
 57  4  4  0
 55  6  4  0
 53  8  4  0
 32 11  4  0
 50 33  4  0
 30 13  4  0
 48 35  4  0
 28 15  4  0
 46 37  4  0
 26 17  4  0
 44 39  4  0
 24 19  4  0
  1 59  1  0
  2 60  1  0
  3 61  1  0
  5 62  1  0
  7 63  1  0
  9 64  1  0
 12 65  1  0
 14 66  1  0
 16 67  1  0
 18 68  1  0
 20 69  1  0
 21 70  1  0
 22 71  1  0
 23 72  1  0
 25 73  1  0
 27 74  1  0
 29 75  1  0
 31 76  1  0
 34 77  1  0
 36 78  1  0
 38 79  1  0
 40 80  1  0
 41 81  1  0
 42 82  1  0
 43 83  1  0
 45 84  1  0
 47 85  1  0
 49 86  1  0
 50 87  1  0
 51 88  1  0
 52 89  1  0
 54 90  1  0
 56 91  1  0
 58 92  1  0
M  END
