
     RDKit          3D

 92104  0  0  0  0  0  0  0  0999 V2000
   -4.7941   -0.4472   -3.5497 C   0  0  0  0  0  0  0  0  0  0  0  0
   -3.4958    0.0369   -3.5853 C   0  0  0  0  0  0  0  0  0  0  0  0
   -2.6233   -0.2404   -2.5302 C   0  0  0  0  0  0  0  0  0  0  0  0
   -3.0199   -0.9990   -1.4013 C   0  0  0  0  0  0  0  0  0  0  0  0
   -4.3388   -1.5039   -1.3997 C   0  0  0  0  0  0  0  0  0  0  0  0
   -5.2106   -1.2160   -2.4653 C   0  0  0  0  0  0  0  0  0  0  0  0
   -4.7800   -2.2914   -0.3302 C   0  0  0  0  0  0  0  0  0  0  0  0
   -3.9340   -2.6432    0.7282 C   0  0  0  0  0  0  0  0  0  0  0  0
   -4.4113   -3.4673    1.7641 C   0  0  0  0  0  0  0  0  0  0  0  0
   -3.5899   -3.8689    2.8277 C   0  0  0  0  0  0  0  0  0  0  0  0
   -4.0679   -4.6885    3.8646 C   0  0  0  0  0  0  0  0  0  0  0  0
   -3.2289   -5.0815    4.9087 C   0  0  0  0  0  0  0  0  0  0  0  0
   -1.9026   -4.6621    4.9282 C   0  0  0  0  0  0  0  0  0  0  0  0
   -1.4164   -3.8468    3.9051 C   0  0  0  0  0  0  0  0  0  0  0  0
   -2.2515   -3.4409    2.8501 C   0  0  0  0  0  0  0  0  0  0  0  0
   -1.7845   -2.6082    1.8183 C   0  0  0  0  0  0  0  0  0  0  0  0
   -2.6075   -2.1669    0.7512 C   0  0  0  0  0  0  0  0  0  0  0  0
   -2.1684   -1.2767   -0.2837 C   0  0  0  0  0  0  0  0  0  0  0  0
   -0.8439   -0.6042   -0.1673 C   0  0  0  0  0  0  0  0  0  0  0  0
    0.2940   -1.2469   -0.6906 C   0  0  0  0  0  0  0  0  0  0  0  0
    1.5732   -0.6782   -0.5899 C   0  0  0  0  0  0  0  0  0  0  0  0
    2.7037   -1.3283   -1.1104 C   0  0  0  0  0  0  0  0  0  0  0  0
    3.9861   -0.7635   -1.0079 C   0  0  0  0  0  0  0  0  0  0  0  0
    5.1172   -1.4150   -1.5279 C   0  0  0  0  0  0  0  0  0  0  0  0
    6.4000   -0.8514   -1.4263 C   0  0  0  0  0  0  0  0  0  0  0  0
    7.5304   -1.5039   -1.9470 C   0  0  0  0  0  0  0  0  0  0  0  0
    8.8131   -0.9403   -1.8458 C   0  0  0  0  0  0  0  0  0  0  0  0
    9.9435   -1.5920   -2.3664 C   0  0  0  0  0  0  0  0  0  0  0  0
   11.2115   -1.0189   -2.2580 C   0  0  0  0  0  0  0  0  0  0  0  0
   11.3658    0.2121   -1.6284 C   0  0  0  0  0  0  0  0  0  0  0  0
   10.2524    0.8720   -1.1061 C   0  0  0  0  0  0  0  0  0  0  0  0
    8.9695    0.3082   -1.2072 C   0  0  0  0  0  0  0  0  0  0  0  0
    7.8387    0.9594   -0.6867 C   0  0  0  0  0  0  0  0  0  0  0  0
    6.5557    0.3948   -0.7885 C   0  0  0  0  0  0  0  0  0  0  0  0
    5.4242    1.0459   -0.2681 C   0  0  0  0  0  0  0  0  0  0  0  0
    4.1412    0.4821   -0.3700 C   0  0  0  0  0  0  0  0  0  0  0  0
    3.0097    1.1329    0.1501 C   0  0  0  0  0  0  0  0  0  0  0  0
    1.7277    0.5676    0.0484 C   0  0  0  0  0  0  0  0  0  0  0  0
    0.5979    1.2190    0.5684 C   0  0  0  0  0  0  0  0  0  0  0  0
   -0.6900    0.6586    0.4694 C   0  0  0  0  0  0  0  0  0  0  0  0
   -1.8492    1.4127    1.0253 C   0  0  0  0  0  0  0  0  0  0  0  0
   -2.5521    2.3507    0.1992 C   0  0  0  0  0  0  0  0  0  0  0  0
   -2.1201    2.7501   -1.0912 C   0  0  0  0  0  0  0  0  0  0  0  0
   -2.8463    3.6435   -1.8981 C   0  0  0  0  0  0  0  0  0  0  0  0
   -2.4012    4.0092   -3.1802 C   0  0  0  0  0  0  0  0  0  0  0  0
   -3.1411    4.8914   -3.9690 C   0  0  0  0  0  0  0  0  0  0  0  0
   -4.3341    5.4193   -3.4859 C   0  0  0  0  0  0  0  0  0  0  0  0
   -4.7863    5.0657   -2.2137 C   0  0  0  0  0  0  0  0  0  0  0  0
   -4.0503    4.1788   -1.4094 C   0  0  0  0  0  0  0  0  0  0  0  0
   -4.4826    3.8142   -0.1262 C   0  0  0  0  0  0  0  0  0  0  0  0
   -3.7486    2.9232    0.6779 C   0  0  0  0  0  0  0  0  0  0  0  0
   -4.2111    2.5993    1.9585 C   0  0  0  0  0  0  0  0  0  0  0  0
   -3.4966    1.7489    2.8096 C   0  0  0  0  0  0  0  0  0  0  0  0
   -3.9855    1.4752    4.0996 C   0  0  0  0  0  0  0  0  0  0  0  0
   -3.2849    0.6499    4.9758 C   0  0  0  0  0  0  0  0  0  0  0  0
   -2.0775    0.0994    4.5767 C   0  0  0  0  0  0  0  0  0  0  0  0
   -1.5870    0.3596    3.2950 C   0  0  0  0  0  0  0  0  0  0  0  0
   -2.2897    1.1656    2.3659 C   0  0  0  0  0  0  0  0  0  0  0  0
   -5.4817   -0.2293   -4.3618 H   0  0  0  0  0  0  0  0  0  0  0  0
   -3.1581    0.6379   -4.4249 H   0  0  0  0  0  0  0  0  0  0  0  0
   -1.6116    0.1518   -2.5999 H   0  0  0  0  0  0  0  0  0  0  0  0
   -6.2316   -1.5916   -2.4560 H   0  0  0  0  0  0  0  0  0  0  0  0
   -5.8051   -2.6586   -0.3324 H   0  0  0  0  0  0  0  0  0  0  0  0
   -5.4468   -3.8020    1.7434 H   0  0  0  0  0  0  0  0  0  0  0  0
   -5.1021   -5.0252    3.8656 H   0  0  0  0  0  0  0  0  0  0  0  0
   -3.6124   -5.7141    5.7047 H   0  0  0  0  0  0  0  0  0  0  0  0
   -1.2462   -4.9668    5.7389 H   0  0  0  0  0  0  0  0  0  0  0  0
   -0.3779   -3.5245    3.9369 H   0  0  0  0  0  0  0  0  0  0  0  0
   -0.7447   -2.2895    1.8553 H   0  0  0  0  0  0  0  0  0  0  0  0
    0.1693   -2.2124   -1.1802 H   0  0  0  0  0  0  0  0  0  0  0  0
    2.5838   -2.2917   -1.6035 H   0  0  0  0  0  0  0  0  0  0  0  0
    4.9951   -2.3784   -2.0200 H   0  0  0  0  0  0  0  0  0  0  0  0
    7.4106   -2.4669   -2.4401 H   0  0  0  0  0  0  0  0  0  0  0  0
    9.8437   -2.5549   -2.8624 H   0  0  0  0  0  0  0  0  0  0  0  0
   12.0771   -1.5345   -2.6655 H   0  0  0  0  0  0  0  0  0  0  0  0
   12.3523    0.6603   -1.5429 H   0  0  0  0  0  0  0  0  0  0  0  0
   10.3938    1.8336   -0.6177 H   0  0  0  0  0  0  0  0  0  0  0  0
    7.9605    1.9225   -0.1942 H   0  0  0  0  0  0  0  0  0  0  0  0
    5.5447    2.0092    0.2247 H   0  0  0  0  0  0  0  0  0  0  0  0
    3.1285    2.0966    0.6428 H   0  0  0  0  0  0  0  0  0  0  0  0
    0.7110    2.1844    1.0607 H   0  0  0  0  0  0  0  0  0  0  0  0
   -1.1888    2.3510   -1.4879 H   0  0  0  0  0  0  0  0  0  0  0  0
   -1.4715    3.6041   -3.5734 H   0  0  0  0  0  0  0  0  0  0  0  0
   -2.7855    5.1648   -4.9587 H   0  0  0  0  0  0  0  0  0  0  0  0
   -4.9136    6.1062   -4.0971 H   0  0  0  0  0  0  0  0  0  0  0  0
   -5.7213    5.4870   -1.8516 H   0  0  0  0  0  0  0  0  0  0  0  0
   -5.4117    4.2340    0.2554 H   0  0  0  0  0  0  0  0  0  0  0  0
   -5.1450    3.0350    2.3104 H   0  0  0  0  0  0  0  0  0  0  0  0
   -4.9293    1.9017    4.4319 H   0  0  0  0  0  0  0  0  0  0  0  0
   -3.6824    0.4392    5.9643 H   0  0  0  0  0  0  0  0  0  0  0  0
   -1.5200   -0.5447    5.2508 H   0  0  0  0  0  0  0  0  0  0  0  0
   -0.6348   -0.0890    3.0221 H   0  0  0  0  0  0  0  0  0  0  0  0
  1  2  4  0
  2  3  4  0
  3  4  4  0
  4  5  4  0
  5  6  4  0
  5  7  4  0
  7  8  4  0
  8  9  4  0
  9 10  4  0
 10 11  4  0
 11 12  4  0
 12 13  4  0
 13 14  4  0
 14 15  4  0
 15 16  4  0
 16 17  4  0
 17 18  4  0
 18 19  1  0
 19 20  4  0
 20 21  4  0
 21 22  4  0
 22 23  4  0
 23 24  4  0
 24 25  4  0
 25 26  4  0
 26 27  4  0
 27 28  4  0
 28 29  4  0
 29 30  4  0
 30 31  4  0
 31 32  4  0
 32 33  4  0
 33 34  4  0
 34 35  4  0
 35 36  4  0
 36 37  4  0
 37 38  4  0
 38 39  4  0
 39 40  4  0
 40 41  1  0
 41 42  4  0
 42 43  4  0
 43 44  4  0
 44 45  4  0
 45 46  4  0
 46 47  4  0
 47 48  4  0
 48 49  4  0
 49 50  4  0
 50 51  4  0
 51 52  4  0
 52 53  4  0
 53 54  4  0
 54 55  4  0
 55 56  4  0
 56 57  4  0
 57 58  4  0
  6  1  4  0
 17  8  4  0
 40 19  4  0
 58 41  4  0
 18  4  4  0
 38 21  4  0
 51 42  4  0
 58 53  4  0
 15 10  4  0
 36 23  4  0
 49 44  4  0
 34 25  4  0
 32 27  4  0
  1 59  1  0
  2 60  1  0
  3 61  1  0
  6 62  1  0
  7 63  1  0
  9 64  1  0
 11 65  1  0
 12 66  1  0
 13 67  1  0
 14 68  1  0
 16 69  1  0
 20 70  1  0
 22 71  1  0
 24 72  1  0
 26 73  1  0
 28 74  1  0
 29 75  1  0
 30 76  1  0
 31 77  1  0
 33 78  1  0
 35 79  1  0
 37 80  1  0
 39 81  1  0
 43 82  1  0
 45 83  1  0
 46 84  1  0
 47 85  1  0
 48 86  1  0
 50 87  1  0
 52 88  1  0
 54 89  1  0
 55 90  1  0
 56 91  1  0
 57 92  1  0
M  END
