
     RDKit          3D

 92104  0  0  0  0  0  0  0  0999 V2000
   -3.0459    9.2140   -2.3569 C   0  0  0  0  0  0  0  0  0  0  0  0
   -1.8205    8.7822   -2.8548 C   0  0  0  0  0  0  0  0  0  0  0  0
   -1.3481    7.5085   -2.5340 C   0  0  0  0  0  0  0  0  0  0  0  0
   -2.0965    6.6503   -1.7110 C   0  0  0  0  0  0  0  0  0  0  0  0
   -1.6353    5.3660   -1.3782 C   0  0  0  0  0  0  0  0  0  0  0  0
   -2.3841    4.5087   -0.5538 C   0  0  0  0  0  0  0  0  0  0  0  0
   -1.9228    3.2237   -0.2188 C   0  0  0  0  0  0  0  0  0  0  0  0
   -2.6590    2.3421    0.6098 C   0  0  0  0  0  0  0  0  0  0  0  0
   -3.9041    2.7980    1.1045 C   0  0  0  0  0  0  0  0  0  0  0  0
   -4.3659    4.0825    0.7694 C   0  0  0  0  0  0  0  0  0  0  0  0
   -3.6223    4.9439   -0.0524 C   0  0  0  0  0  0  0  0  0  0  0  0
   -4.0869    6.2284   -0.3846 C   0  0  0  0  0  0  0  0  0  0  0  0
   -3.3394    7.0879   -1.2069 C   0  0  0  0  0  0  0  0  0  0  0  0
   -3.8010    8.3727   -1.5382 C   0  0  0  0  0  0  0  0  0  0  0  0
   -4.6775    1.9652    1.9271 C   0  0  0  0  0  0  0  0  0  0  0  0
   -4.2391    0.6896    2.2686 C   0  0  0  0  0  0  0  0  0  0  0  0
   -3.0175    0.2289    1.7907 C   0  0  0  0  0  0  0  0  0  0  0  0
   -2.2151    1.0318    0.9593 C   0  0  0  0  0  0  0  0  0  0  0  0
   -0.9302    0.4800    0.4787 C   0  0  0  0  0  0  0  0  0  0  0  0
    0.2548    0.8373    1.1524 C   0  0  0  0  0  0  0  0  0  0  0  0
    1.5113    0.3624    0.7435 C   0  0  0  0  0  0  0  0  0  0  0  0
    2.6891    0.7283    1.4166 C   0  0  0  0  0  0  0  0  0  0  0  0
    3.9462    0.2527    1.0063 C   0  0  0  0  0  0  0  0  0  0  0  0
    5.1248    0.6171    1.6796 C   0  0  0  0  0  0  0  0  0  0  0  0
    6.3815    0.1402    1.2703 C   0  0  0  0  0  0  0  0  0  0  0  0
    7.5593    0.5040    1.9452 C   0  0  0  0  0  0  0  0  0  0  0  0
    8.8158    0.0270    1.5360 C   0  0  0  0  0  0  0  0  0  0  0  0
    9.9936    0.3900    2.2102 C   0  0  0  0  0  0  0  0  0  0  0  0
   11.2343   -0.0926    1.7910 C   0  0  0  0  0  0  0  0  0  0  0  0
   11.3138   -0.9438    0.6934 C   0  0  0  0  0  0  0  0  0  0  0  0
   10.1526   -1.3138    0.0132 C   0  0  0  0  0  0  0  0  0  0  0  0
    8.8964   -0.8364    0.4229 C   0  0  0  0  0  0  0  0  0  0  0  0
    7.7184   -1.1997   -0.2508 C   0  0  0  0  0  0  0  0  0  0  0  0
    6.4620   -0.7218    0.1593 C   0  0  0  0  0  0  0  0  0  0  0  0
    5.2835   -1.0853   -0.5145 C   0  0  0  0  0  0  0  0  0  0  0  0
    4.0267   -0.6090   -0.1044 C   0  0  0  0  0  0  0  0  0  0  0  0
    2.8483   -0.9734   -0.7778 C   0  0  0  0  0  0  0  0  0  0  0  0
    1.5919   -0.4974   -0.3671 C   0  0  0  0  0  0  0  0  0  0  0  0
    0.4141   -0.8612   -1.0396 C   0  0  0  0  0  0  0  0  0  0  0  0
   -0.8502   -0.3919   -0.6319 C   0  0  0  0  0  0  0  0  0  0  0  0
   -2.0463   -0.8226   -1.3879 C   0  0  0  0  0  0  0  0  0  0  0  0
   -2.5729    0.0522   -2.3565 C   0  0  0  0  0  0  0  0  0  0  0  0
   -3.6983   -0.2913   -3.0967 C   0  0  0  0  0  0  0  0  0  0  0  0
   -4.3131   -1.5214   -2.8865 C   0  0  0  0  0  0  0  0  0  0  0  0
   -3.8152   -2.4239   -1.9348 C   0  0  0  0  0  0  0  0  0  0  0  0
   -4.4522   -3.6612   -1.7388 C   0  0  0  0  0  0  0  0  0  0  0  0
   -3.9870   -4.5912   -0.7962 C   0  0  0  0  0  0  0  0  0  0  0  0
   -4.6261   -5.8291   -0.6060 C   0  0  0  0  0  0  0  0  0  0  0  0
   -4.1581   -6.7583    0.3379 C   0  0  0  0  0  0  0  0  0  0  0  0
   -4.7943   -7.9968    0.5280 C   0  0  0  0  0  0  0  0  0  0  0  0
   -4.3161   -8.9088    1.4704 C   0  0  0  0  0  0  0  0  0  0  0  0
   -3.1967   -8.5946    2.2346 C   0  0  0  0  0  0  0  0  0  0  0  0
   -2.5537   -7.3683    2.0570 C   0  0  0  0  0  0  0  0  0  0  0  0
   -3.0226   -6.4400    1.1123 C   0  0  0  0  0  0  0  0  0  0  0  0
   -2.3863   -5.2020    0.9203 C   0  0  0  0  0  0  0  0  0  0  0  0
   -2.8553   -4.2742   -0.0261 C   0  0  0  0  0  0  0  0  0  0  0  0
   -2.2185   -3.0353   -0.2216 C   0  0  0  0  0  0  0  0  0  0  0  0
   -2.6724   -2.0867   -1.1708 C   0  0  0  0  0  0  0  0  0  0  0  0
   -3.4158   10.2054   -2.6048 H   0  0  0  0  0  0  0  0  0  0  0  0
   -1.2312    9.4356   -3.4929 H   0  0  0  0  0  0  0  0  0  0  0  0
   -0.3876    7.1882   -2.9320 H   0  0  0  0  0  0  0  0  0  0  0  0
   -0.6762    5.0277   -1.7665 H   0  0  0  0  0  0  0  0  0  0  0  0
   -0.9630    2.9017   -0.6197 H   0  0  0  0  0  0  0  0  0  0  0  0
   -5.3266    4.4191    1.1557 H   0  0  0  0  0  0  0  0  0  0  0  0
   -5.0467    6.5646    0.0029 H   0  0  0  0  0  0  0  0  0  0  0  0
   -4.7566    8.7283   -1.1592 H   0  0  0  0  0  0  0  0  0  0  0  0
   -5.6380    2.3055    2.3087 H   0  0  0  0  0  0  0  0  0  0  0  0
   -4.8505    0.0518    2.9014 H   0  0  0  0  0  0  0  0  0  0  0  0
   -2.6898   -0.7730    2.0613 H   0  0  0  0  0  0  0  0  0  0  0  0
    0.1868    1.5055    2.0107 H   0  0  0  0  0  0  0  0  0  0  0  0
    2.6260    1.3958    2.2745 H   0  0  0  0  0  0  0  0  0  0  0  0
    5.0626    1.2840    2.5380 H   0  0  0  0  0  0  0  0  0  0  0  0
    7.4981    1.1696    2.8043 H   0  0  0  0  0  0  0  0  0  0  0  0
    9.9528    1.0540    3.0708 H   0  0  0  0  0  0  0  0  0  0  0  0
   12.1373    0.1967    2.3223 H   0  0  0  0  0  0  0  0  0  0  0  0
   12.2789   -1.3208    0.3652 H   0  0  0  0  0  0  0  0  0  0  0  0
   10.2353   -1.9802   -0.8424 H   0  0  0  0  0  0  0  0  0  0  0  0
    7.7816   -1.8664   -1.1090 H   0  0  0  0  0  0  0  0  0  0  0  0
    5.3458   -1.7516   -1.3733 H   0  0  0  0  0  0  0  0  0  0  0  0
    2.9093   -1.6403   -1.6363 H   0  0  0  0  0  0  0  0  0  0  0  0
    0.4713   -1.5271   -1.9005 H   0  0  0  0  0  0  0  0  0  0  0  0
   -2.1044    1.0192   -2.5294 H   0  0  0  0  0  0  0  0  0  0  0  0
   -4.0980    0.4023   -3.8318 H   0  0  0  0  0  0  0  0  0  0  0  0
   -5.1939   -1.7707   -3.4747 H   0  0  0  0  0  0  0  0  0  0  0  0
   -5.3309   -3.9061   -2.3333 H   0  0  0  0  0  0  0  0  0  0  0  0
   -5.5024   -6.0742   -1.2035 H   0  0  0  0  0  0  0  0  0  0  0  0
   -5.6707   -8.2604   -0.0599 H   0  0  0  0  0  0  0  0  0  0  0  0
   -4.8182   -9.8632    1.6064 H   0  0  0  0  0  0  0  0  0  0  0  0
   -2.8223   -9.3025    2.9692 H   0  0  0  0  0  0  0  0  0  0  0  0
   -1.6800   -7.1406    2.6637 H   0  0  0  0  0  0  0  0  0  0  0  0
   -1.5093   -4.9568    1.5168 H   0  0  0  0  0  0  0  0  0  0  0  0
   -1.3451   -2.8045    0.3864 H   0  0  0  0  0  0  0  0  0  0  0  0
  1  2  4  0
  2  3  4  0
  3  4  4  0
  4  5  4  0
  5  6  4  0
  6  7  4  0
  7  8  4  0
  8  9  4  0
  9 10  4  0
 10 11  4  0
 11 12  4  0
 12 13  4  0
 13 14  4  0
  9 15  4  0
 15 16  4  0
 16 17  4  0
 17 18  4  0
 18 19  1  0
 19 20  4  0
 20 21  4  0
 21 22  4  0
 22 23  4  0
 23 24  4  0
 24 25  4  0
 25 26  4  0
 26 27  4  0
 27 28  4  0
 28 29  4  0
 29 30  4  0
 30 31  4  0
 31 32  4  0
 32 33  4  0
 33 34  4  0
 34 35  4  0
 35 36  4  0
 36 37  4  0
 37 38  4  0
 38 39  4  0
 39 40  4  0
 40 41  1  0
 41 42  4  0
 42 43  4  0
 43 44  4  0
 44 45  4  0
 45 46  4  0
 46 47  4  0
 47 48  4  0
 48 49  4  0
 49 50  4  0
 50 51  4  0
 51 52  4  0
 52 53  4  0
 53 54  4  0
 54 55  4  0
 55 56  4  0
 56 57  4  0
 57 58  4  0
 14  1  4  0
 40 19  4  0
 58 41  4  0
 13  4  4  0
 38 21  4  0
 58 45  4  0
 11  6  4  0
 36 23  4  0
 56 47  4  0
 18  8  4  0
 34 25  4  0
 54 49  4  0
 32 27  4  0
  1 59  1  0
  2 60  1  0
  3 61  1  0
  5 62  1  0
  7 63  1  0
 10 64  1  0
 12 65  1  0
 14 66  1  0
 15 67  1  0
 16 68  1  0
 17 69  1  0
 20 70  1  0
 22 71  1  0
 24 72  1  0
 26 73  1  0
 28 74  1  0
 29 75  1  0
 30 76  1  0
 31 77  1  0
 33 78  1  0
 35 79  1  0
 37 80  1  0
 39 81  1  0
 42 82  1  0
 43 83  1  0
 44 84  1  0
 46 85  1  0
 48 86  1  0
 50 87  1  0
 51 88  1  0
 52 89  1  0
 53 90  1  0
 55 91  1  0
 57 92  1  0
M  END
