
     RDKit          3D

104118  0  0  0  0  0  0  0  0999 V2000
   -3.7892    0.8758   -4.2476 C   0  0  0  0  0  0  0  0  0  0  0  0
   -2.4578    1.1559   -3.9841 C   0  0  0  0  0  0  0  0  0  0  0  0
   -1.8329    0.5731   -2.8791 C   0  0  0  0  0  0  0  0  0  0  0  0
   -2.5174   -0.2952   -1.9931 C   0  0  0  0  0  0  0  0  0  0  0  0
   -3.8632   -0.5920   -2.3016 C   0  0  0  0  0  0  0  0  0  0  0  0
   -4.4846    0.0024   -3.4146 C   0  0  0  0  0  0  0  0  0  0  0  0
   -4.5799   -1.4849   -1.4970 C   0  0  0  0  0  0  0  0  0  0  0  0
   -3.9915   -2.1320   -0.4044 C   0  0  0  0  0  0  0  0  0  0  0  0
   -4.7403   -3.0559    0.3478 C   0  0  0  0  0  0  0  0  0  0  0  0
   -4.1869   -3.7442    1.4374 C   0  0  0  0  0  0  0  0  0  0  0  0
   -4.9375   -4.6651    2.1895 C   0  0  0  0  0  0  0  0  0  0  0  0
   -4.3747   -5.3556    3.2757 C   0  0  0  0  0  0  0  0  0  0  0  0
   -5.1220   -6.2777    4.0280 C   0  0  0  0  0  0  0  0  0  0  0  0
   -4.5467   -6.9535    5.1053 C   0  0  0  0  0  0  0  0  0  0  0  0
   -3.2183   -6.7160    5.4449 C   0  0  0  0  0  0  0  0  0  0  0  0
   -2.4631   -5.8033    4.7067 C   0  0  0  0  0  0  0  0  0  0  0  0
   -3.0273   -5.1167    3.6186 C   0  0  0  0  0  0  0  0  0  0  0  0
   -2.2805   -4.1966    2.8643 C   0  0  0  0  0  0  0  0  0  0  0  0
   -2.8468   -3.5075    1.7777 C   0  0  0  0  0  0  0  0  0  0  0  0
   -2.1042   -2.5815    1.0232 C   0  0  0  0  0  0  0  0  0  0  0  0
   -2.6510   -1.8563   -0.0659 C   0  0  0  0  0  0  0  0  0  0  0  0
   -1.9242   -0.8825   -0.8287 C   0  0  0  0  0  0  0  0  0  0  0  0
   -0.5563   -0.4739   -0.4010 C   0  0  0  0  0  0  0  0  0  0  0  0
    0.5436   -1.2274   -0.8564 C   0  0  0  0  0  0  0  0  0  0  0  0
    1.8600   -0.9132   -0.4849 C   0  0  0  0  0  0  0  0  0  0  0  0
    2.9488   -1.6729   -0.9424 C   0  0  0  0  0  0  0  0  0  0  0  0
    4.2675   -1.3586   -0.5742 C   0  0  0  0  0  0  0  0  0  0  0  0
    5.3574   -2.1175   -1.0326 C   0  0  0  0  0  0  0  0  0  0  0  0
    6.6767   -1.8017   -0.6668 C   0  0  0  0  0  0  0  0  0  0  0  0
    7.7666   -2.5602   -1.1265 C   0  0  0  0  0  0  0  0  0  0  0  0
    9.0854   -2.2439   -0.7606 C   0  0  0  0  0  0  0  0  0  0  0  0
   10.1756   -3.0017   -1.2197 C   0  0  0  0  0  0  0  0  0  0  0  0
   11.4803   -2.6745   -0.8473 C   0  0  0  0  0  0  0  0  0  0  0  0
   11.7118   -1.5862   -0.0118 C   0  0  0  0  0  0  0  0  0  0  0  0
   10.6390   -0.8236    0.4524 C   0  0  0  0  0  0  0  0  0  0  0  0
    9.3202   -1.1403    0.0866 C   0  0  0  0  0  0  0  0  0  0  0  0
    8.2300   -0.3826    0.5454 C   0  0  0  0  0  0  0  0  0  0  0  0
    6.9112   -0.7000    0.1791 C   0  0  0  0  0  0  0  0  0  0  0  0
    5.8210    0.0580    0.6384 C   0  0  0  0  0  0  0  0  0  0  0  0
    4.5020   -0.2582    0.2726 C   0  0  0  0  0  0  0  0  0  0  0  0
    3.4118    0.4992    0.7330 C   0  0  0  0  0  0  0  0  0  0  0  0
    2.0937    0.1847    0.3641 C   0  0  0  0  0  0  0  0  0  0  0  0
    1.0050    0.9434    0.8218 C   0  0  0  0  0  0  0  0  0  0  0  0
   -0.3202    0.6386    0.4522 C   0  0  0  0  0  0  0  0  0  0  0  0
   -1.4195    1.5052    0.9634 C   0  0  0  0  0  0  0  0  0  0  0  0
   -1.7980    2.6829    0.2373 C   0  0  0  0  0  0  0  0  0  0  0  0
   -1.0981    3.1773   -0.8924 C   0  0  0  0  0  0  0  0  0  0  0  0
   -1.5103    4.3130   -1.6119 C   0  0  0  0  0  0  0  0  0  0  0  0
   -0.8051    4.7659   -2.7403 C   0  0  0  0  0  0  0  0  0  0  0  0
   -1.2264    5.8939   -3.4630 C   0  0  0  0  0  0  0  0  0  0  0  0
   -0.5250    6.3450   -4.5933 C   0  0  0  0  0  0  0  0  0  0  0  0
   -0.9576    7.4673   -5.3011 C   0  0  0  0  0  0  0  0  0  0  0  0
   -2.0957    8.1532   -4.8884 C   0  0  0  0  0  0  0  0  0  0  0  0
   -2.8030    7.7173   -3.7669 C   0  0  0  0  0  0  0  0  0  0  0  0
   -2.3806    6.5889   -3.0442 C   0  0  0  0  0  0  0  0  0  0  0  0
   -3.0806    6.1365   -1.9134 C   0  0  0  0  0  0  0  0  0  0  0  0
   -2.6566    5.0054   -1.1937 C   0  0  0  0  0  0  0  0  0  0  0  0
   -3.3472    4.5496   -0.0612 C   0  0  0  0  0  0  0  0  0  0  0  0
   -2.9286    3.4140    0.6559 C   0  0  0  0  0  0  0  0  0  0  0  0
   -3.6378    3.0081    1.7919 C   0  0  0  0  0  0  0  0  0  0  0  0
   -3.2380    1.9084    2.5585 C   0  0  0  0  0  0  0  0  0  0  0  0
   -3.9607    1.5609    3.7136 C   0  0  0  0  0  0  0  0  0  0  0  0
   -3.5746    0.4838    4.5074 C   0  0  0  0  0  0  0  0  0  0  0  0
   -2.4506   -0.2505    4.1634 C   0  0  0  0  0  0  0  0  0  0  0  0
   -1.7266    0.0871    3.0178 C   0  0  0  0  0  0  0  0  0  0  0  0
   -2.1092    1.1543    2.1688 C   0  0  0  0  0  0  0  0  0  0  0  0
   -4.2856    1.3323   -5.0992 H   0  0  0  0  0  0  0  0  0  0  0  0
   -1.9028    1.8329   -4.6279 H   0  0  0  0  0  0  0  0  0  0  0  0
   -0.7847    0.8093   -2.7142 H   0  0  0  0  0  0  0  0  0  0  0  0
   -5.5263   -0.2128   -3.6424 H   0  0  0  0  0  0  0  0  0  0  0  0
   -5.6191   -1.6993   -1.7419 H   0  0  0  0  0  0  0  0  0  0  0  0
   -5.7778   -3.2460    0.0771 H   0  0  0  0  0  0  0  0  0  0  0  0
   -5.9773   -4.8461    1.9248 H   0  0  0  0  0  0  0  0  0  0  0  0
   -6.1619   -6.4756    3.7784 H   0  0  0  0  0  0  0  0  0  0  0  0
   -5.1367   -7.6636    5.6787 H   0  0  0  0  0  0  0  0  0  0  0  0
   -2.7686   -7.2394    6.2845 H   0  0  0  0  0  0  0  0  0  0  0  0
   -1.4275   -5.6261    4.9883 H   0  0  0  0  0  0  0  0  0  0  0  0
   -1.2407   -4.0117    3.1277 H   0  0  0  0  0  0  0  0  0  0  0  0
   -1.0638   -2.4214    1.2990 H   0  0  0  0  0  0  0  0  0  0  0  0
    0.3583   -2.0770   -1.5134 H   0  0  0  0  0  0  0  0  0  0  0  0
    2.7657   -2.5240   -1.5963 H   0  0  0  0  0  0  0  0  0  0  0  0
    5.1753   -2.9691   -1.6861 H   0  0  0  0  0  0  0  0  0  0  0  0
    7.5876   -3.4113   -1.7812 H   0  0  0  0  0  0  0  0  0  0  0  0
   10.0147   -3.8559   -1.8735 H   0  0  0  0  0  0  0  0  0  0  0  0
   12.3141   -3.2697   -1.2100 H   0  0  0  0  0  0  0  0  0  0  0  0
   12.7269   -1.3295    0.2794 H   0  0  0  0  0  0  0  0  0  0  0  0
   10.8405    0.0233    1.1045 H   0  0  0  0  0  0  0  0  0  0  0  0
    8.4128    0.4688    1.1986 H   0  0  0  0  0  0  0  0  0  0  0  0
    6.0029    0.9093    1.2922 H   0  0  0  0  0  0  0  0  0  0  0  0
    3.5924    1.3485    1.3897 H   0  0  0  0  0  0  0  0  0  0  0  0
    1.1810    1.7961    1.4774 H   0  0  0  0  0  0  0  0  0  0  0  0
   -0.2014    2.6612   -1.2298 H   0  0  0  0  0  0  0  0  0  0  0  0
    0.0851    4.2285   -3.0622 H   0  0  0  0  0  0  0  0  0  0  0  0
    0.3674    5.8227   -4.9309 H   0  0  0  0  0  0  0  0  0  0  0  0
   -0.4047    7.8042   -6.1738 H   0  0  0  0  0  0  0  0  0  0  0  0
   -2.4341    9.0276   -5.4379 H   0  0  0  0  0  0  0  0  0  0  0  0
   -3.6903    8.2661   -3.4593 H   0  0  0  0  0  0  0  0  0  0  0  0
   -3.9704    6.6722   -1.5883 H   0  0  0  0  0  0  0  0  0  0  0  0
   -4.2309    5.0926    0.2704 H   0  0  0  0  0  0  0  0  0  0  0  0
   -4.5136    3.5770    2.1012 H   0  0  0  0  0  0  0  0  0  0  0  0
   -4.8395    2.1325    4.0048 H   0  0  0  0  0  0  0  0  0  0  0  0
   -4.1483    0.2239    5.3922 H   0  0  0  0  0  0  0  0  0  0  0  0
   -2.1369   -1.0910    4.7762 H   0  0  0  0  0  0  0  0  0  0  0  0
   -0.8437   -0.5050    2.7905 H   0  0  0  0  0  0  0  0  0  0  0  0
  1  2  4  0
  2  3  4  0
  3  4  4  0
  4  5  4  0
  5  6  4  0
  5  7  4  0
  7  8  4  0
  8  9  4  0
  9 10  4  0
 10 11  4  0
 11 12  4  0
 12 13  4  0
 13 14  4  0
 14 15  4  0
 15 16  4  0
 16 17  4  0
 17 18  4  0
 18 19  4  0
 19 20  4  0
 20 21  4  0
 21 22  4  0
 22 23  1  0
 23 24  4  0
 24 25  4  0
 25 26  4  0
 26 27  4  0
 27 28  4  0
 28 29  4  0
 29 30  4  0
 30 31  4  0
 31 32  4  0
 32 33  4  0
 33 34  4  0
 34 35  4  0
 35 36  4  0
 36 37  4  0
 37 38  4  0
 38 39  4  0
 39 40  4  0
 40 41  4  0
 41 42  4  0
 42 43  4  0
 43 44  4  0
 44 45  1  0
 45 46  4  0
 46 47  4  0
 47 48  4  0
 48 49  4  0
 49 50  4  0
 50 51  4  0
 51 52  4  0
 52 53  4  0
 53 54  4  0
 54 55  4  0
 55 56  4  0
 56 57  4  0
 57 58  4  0
 58 59  4  0
 59 60  4  0
 60 61  4  0
 61 62  4  0
 62 63  4  0
 63 64  4  0
 64 65  4  0
 65 66  4  0
  6  1  4  0
 21  8  4  0
 44 23  4  0
 66 45  4  0
 22  4  4  0
 42 25  4  0
 59 46  4  0
 66 61  4  0
 19 10  4  0
 40 27  4  0
 57 48  4  0
 17 12  4  0
 38 29  4  0
 55 50  4  0
 36 31  4  0
  1 67  1  0
  2 68  1  0
  3 69  1  0
  6 70  1  0
  7 71  1  0
  9 72  1  0
 11 73  1  0
 13 74  1  0
 14 75  1  0
 15 76  1  0
 16 77  1  0
 18 78  1  0
 20 79  1  0
 24 80  1  0
 26 81  1  0
 28 82  1  0
 30 83  1  0
 32 84  1  0
 33 85  1  0
 34 86  1  0
 35 87  1  0
 37 88  1  0
 39 89  1  0
 41 90  1  0
 43 91  1  0
 47 92  1  0
 49 93  1  0
 51 94  1  0
 52 95  1  0
 53 96  1  0
 54 97  1  0
 56 98  1  0
 58 99  1  0
 60100  1  0
 62101  1  0
 63102  1  0
 64103  1  0
 65104  1  0
M  END
