
     RDKit          3D

104118  0  0  0  0  0  0  0  0999 V2000
   -3.4201    0.3689   -6.7153 C   0  0  0  0  0  0  0  0  0  0  0  0
   -2.2620   -0.3614   -6.4688 C   0  0  0  0  0  0  0  0  0  0  0  0
   -1.6269   -0.2615   -5.2302 C   0  0  0  0  0  0  0  0  0  0  0  0
   -2.1450    0.5653   -4.2195 C   0  0  0  0  0  0  0  0  0  0  0  0
   -1.5233    0.6741   -2.9626 C   0  0  0  0  0  0  0  0  0  0  0  0
   -2.0358    1.4827   -1.9185 C   0  0  0  0  0  0  0  0  0  0  0  0
   -3.1968    2.2316   -2.2019 C   0  0  0  0  0  0  0  0  0  0  0  0
   -3.8239    2.1275   -3.4564 C   0  0  0  0  0  0  0  0  0  0  0  0
   -3.3165    1.3009   -4.4683 C   0  0  0  0  0  0  0  0  0  0  0  0
   -3.9449    1.1958   -5.7213 C   0  0  0  0  0  0  0  0  0  0  0  0
   -3.7266    3.0891   -1.2317 C   0  0  0  0  0  0  0  0  0  0  0  0
   -3.1144    3.2666    0.0133 C   0  0  0  0  0  0  0  0  0  0  0  0
   -3.6637    4.1745    0.9374 C   0  0  0  0  0  0  0  0  0  0  0  0
   -3.0715    4.4069    2.1867 C   0  0  0  0  0  0  0  0  0  0  0  0
   -3.6214    5.3127    3.1098 C   0  0  0  0  0  0  0  0  0  0  0  0
   -3.0084    5.5351    4.3437 C   0  0  0  0  0  0  0  0  0  0  0  0
   -1.8373    4.8581    4.6684 C   0  0  0  0  0  0  0  0  0  0  0  0
   -1.2823    3.9553    3.7607 C   0  0  0  0  0  0  0  0  0  0  0  0
   -1.8938    3.7166    2.5177 C   0  0  0  0  0  0  0  0  0  0  0  0
   -1.3602    2.7984    1.5962 C   0  0  0  0  0  0  0  0  0  0  0  0
   -1.9520    2.5357    0.3320 C   0  0  0  0  0  0  0  0  0  0  0  0
   -1.4412    1.5864   -0.6197 C   0  0  0  0  0  0  0  0  0  0  0  0
   -0.3014    0.7042   -0.2353 C   0  0  0  0  0  0  0  0  0  0  0  0
    1.0026    1.2392   -0.2696 C   0  0  0  0  0  0  0  0  0  0  0  0
    2.1194    0.4991    0.1484 C   0  0  0  0  0  0  0  0  0  0  0  0
    3.4126    1.0459    0.1169 C   0  0  0  0  0  0  0  0  0  0  0  0
    4.5305    0.3076    0.5396 C   0  0  0  0  0  0  0  0  0  0  0  0
    5.8246    0.8536    0.5065 C   0  0  0  0  0  0  0  0  0  0  0  0
    6.9435    0.1153    0.9278 C   0  0  0  0  0  0  0  0  0  0  0  0
    8.2379    0.6616    0.8937 C   0  0  0  0  0  0  0  0  0  0  0  0
    9.3563   -0.0769    1.3148 C   0  0  0  0  0  0  0  0  0  0  0  0
   10.6505    0.4685    1.2810 C   0  0  0  0  0  0  0  0  0  0  0  0
   11.7515   -0.2784    1.7030 C   0  0  0  0  0  0  0  0  0  0  0  0
   11.5731   -1.5789    2.1640 C   0  0  0  0  0  0  0  0  0  0  0  0
   10.2934   -2.1347    2.2037 C   0  0  0  0  0  0  0  0  0  0  0  0
    9.1754   -1.3959    1.7823 C   0  0  0  0  0  0  0  0  0  0  0  0
    7.8811   -1.9410    1.8160 C   0  0  0  0  0  0  0  0  0  0  0  0
    6.7631   -1.2015    1.3944 C   0  0  0  0  0  0  0  0  0  0  0  0
    5.4686   -1.7470    1.4279 C   0  0  0  0  0  0  0  0  0  0  0  0
    4.3501   -1.0085    1.0064 C   0  0  0  0  0  0  0  0  0  0  0  0
    3.0557   -1.5540    1.0392 C   0  0  0  0  0  0  0  0  0  0  0  0
    1.9385   -0.8154    0.6157 C   0  0  0  0  0  0  0  0  0  0  0  0
    0.6466   -1.3639    0.6390 C   0  0  0  0  0  0  0  0  0  0  0  0
   -0.4797   -0.6375    0.2004 C   0  0  0  0  0  0  0  0  0  0  0  0
   -1.8022   -1.3277    0.1698 C   0  0  0  0  0  0  0  0  0  0  0  0
   -2.1065   -2.2231   -0.9138 C   0  0  0  0  0  0  0  0  0  0  0  0
   -1.1801   -2.6034   -1.9211 C   0  0  0  0  0  0  0  0  0  0  0  0
   -1.5056   -3.4776   -2.9733 C   0  0  0  0  0  0  0  0  0  0  0  0
   -0.5622   -3.8399   -3.9503 C   0  0  0  0  0  0  0  0  0  0  0  0
   -0.9049   -4.7080   -4.9876 C   0  0  0  0  0  0  0  0  0  0  0  0
   -2.1953   -5.2226   -5.0622 C   0  0  0  0  0  0  0  0  0  0  0  0
   -3.1418   -4.8700   -4.0989 C   0  0  0  0  0  0  0  0  0  0  0  0
   -2.8076   -3.9993   -3.0473 C   0  0  0  0  0  0  0  0  0  0  0  0
   -3.7380   -3.6382   -2.0623 C   0  0  0  0  0  0  0  0  0  0  0  0
   -3.4007   -2.7750   -1.0033 C   0  0  0  0  0  0  0  0  0  0  0  0
   -4.3572   -2.4636   -0.0311 C   0  0  0  0  0  0  0  0  0  0  0  0
   -4.0593   -1.6501    1.0673 C   0  0  0  0  0  0  0  0  0  0  0  0
   -5.0477   -1.3976    2.0357 C   0  0  0  0  0  0  0  0  0  0  0  0
   -4.7885   -0.6108    3.1663 C   0  0  0  0  0  0  0  0  0  0  0  0
   -5.7798   -0.3469    4.1274 C   0  0  0  0  0  0  0  0  0  0  0  0
   -5.4982    0.4390    5.2458 C   0  0  0  0  0  0  0  0  0  0  0  0
   -4.2220    0.9643    5.4193 C   0  0  0  0  0  0  0  0  0  0  0  0
   -3.2283    0.7029    4.4753 C   0  0  0  0  0  0  0  0  0  0  0  0
   -3.4997   -0.0784    3.3400 C   0  0  0  0  0  0  0  0  0  0  0  0
   -2.5163   -0.3357    2.3681 C   0  0  0  0  0  0  0  0  0  0  0  0
   -2.7702   -1.0936    1.1992 C   0  0  0  0  0  0  0  0  0  0  0  0
   -3.9175    0.2920   -7.6781 H   0  0  0  0  0  0  0  0  0  0  0  0
   -1.8529   -1.0132   -7.2358 H   0  0  0  0  0  0  0  0  0  0  0  0
   -0.7258   -0.8435   -5.0531 H   0  0  0  0  0  0  0  0  0  0  0  0
   -0.6068    0.1123   -2.7983 H   0  0  0  0  0  0  0  0  0  0  0  0
   -4.7262    2.7047   -3.6510 H   0  0  0  0  0  0  0  0  0  0  0  0
   -4.8519    1.7587   -5.9295 H   0  0  0  0  0  0  0  0  0  0  0  0
   -4.6299    3.6530   -1.4607 H   0  0  0  0  0  0  0  0  0  0  0  0
   -4.5715    4.7167    0.6774 H   0  0  0  0  0  0  0  0  0  0  0  0
   -4.5355    5.8517    2.8712 H   0  0  0  0  0  0  0  0  0  0  0  0
   -3.4454    6.2379    5.0480 H   0  0  0  0  0  0  0  0  0  0  0  0
   -1.3554    5.0311    5.6268 H   0  0  0  0  0  0  0  0  0  0  0  0
   -0.3671    3.4331    4.0304 H   0  0  0  0  0  0  0  0  0  0  0  0
   -0.4533    2.2693    1.8818 H   0  0  0  0  0  0  0  0  0  0  0  0
    1.1371    2.2639   -0.6163 H   0  0  0  0  0  0  0  0  0  0  0  0
    3.5510    2.0640   -0.2436 H   0  0  0  0  0  0  0  0  0  0  0  0
    5.9630    1.8713    0.1454 H   0  0  0  0  0  0  0  0  0  0  0  0
    8.3790    1.6790    0.5335 H   0  0  0  0  0  0  0  0  0  0  0  0
   10.8109    1.4836    0.9246 H   0  0  0  0  0  0  0  0  0  0  0  0
   12.7471    0.1565    1.6715 H   0  0  0  0  0  0  0  0  0  0  0  0
   12.4290   -2.1622    2.4934 H   0  0  0  0  0  0  0  0  0  0  0  0
   10.1749   -3.1527    2.5681 H   0  0  0  0  0  0  0  0  0  0  0  0
    7.7430   -2.9587    2.1765 H   0  0  0  0  0  0  0  0  0  0  0  0
    5.3292   -2.7648    1.7884 H   0  0  0  0  0  0  0  0  0  0  0  0
    2.9155   -2.5720    1.3993 H   0  0  0  0  0  0  0  0  0  0  0  0
    0.5048   -2.3876    0.9859 H   0  0  0  0  0  0  0  0  0  0  0  0
   -0.1665   -2.2087   -1.8912 H   0  0  0  0  0  0  0  0  0  0  0  0
    0.4494   -3.4429   -3.9081 H   0  0  0  0  0  0  0  0  0  0  0  0
   -0.1654   -4.9811   -5.7358 H   0  0  0  0  0  0  0  0  0  0  0  0
   -2.4674   -5.8980   -5.8691 H   0  0  0  0  0  0  0  0  0  0  0  0
   -4.1464   -5.2800   -4.1739 H   0  0  0  0  0  0  0  0  0  0  0  0
   -4.7469   -4.0437   -2.1186 H   0  0  0  0  0  0  0  0  0  0  0  0
   -5.3577   -2.8852   -0.1196 H   0  0  0  0  0  0  0  0  0  0  0  0
   -6.0417   -1.8229    1.9077 H   0  0  0  0  0  0  0  0  0  0  0  0
   -6.7827   -0.7499    4.0066 H   0  0  0  0  0  0  0  0  0  0  0  0
   -6.2756    0.6426    5.9771 H   0  0  0  0  0  0  0  0  0  0  0  0
   -3.9982    1.5834    6.2834 H   0  0  0  0  0  0  0  0  0  0  0  0
   -2.2383    1.1267    4.6241 H   0  0  0  0  0  0  0  0  0  0  0  0
   -1.5208    0.0702    2.5319 H   0  0  0  0  0  0  0  0  0  0  0  0
  1  2  4  0
  2  3  4  0
  3  4  4  0
  4  5  4  0
  5  6  4  0
  6  7  4  0
  7  8  4  0
  8  9  4  0
  9 10  4  0
  7 11  4  0
 11 12  4  0
 12 13  4  0
 13 14  4  0
 14 15  4  0
 15 16  4  0
 16 17  4  0
 17 18  4  0
 18 19  4  0
 19 20  4  0
 20 21  4  0
 21 22  4  0
 22 23  1  0
 23 24  4  0
 24 25  4  0
 25 26  4  0
 26 27  4  0
 27 28  4  0
 28 29  4  0
 29 30  4  0
 30 31  4  0
 31 32  4  0
 32 33  4  0
 33 34  4  0
 34 35  4  0
 35 36  4  0
 36 37  4  0
 37 38  4  0
 38 39  4  0
 39 40  4  0
 40 41  4  0
 41 42  4  0
 42 43  4  0
 43 44  4  0
 44 45  1  0
 45 46  4  0
 46 47  4  0
 47 48  4  0
 48 49  4  0
 49 50  4  0
 50 51  4  0
 51 52  4  0
 52 53  4  0
 53 54  4  0
 54 55  4  0
 55 56  4  0
 56 57  4  0
 57 58  4  0
 58 59  4  0
 59 60  4  0
 60 61  4  0
 61 62  4  0
 62 63  4  0
 63 64  4  0
 64 65  4  0
 65 66  4  0
 10  1  4  0
 21 12  4  0
 44 23  4  0
 66 45  4  0
  9  4  4  0
 19 14  4  0
 42 25  4  0
 55 46  4  0
 66 57  4  0
 22  6  4  0
 40 27  4  0
 53 48  4  0
 64 59  4  0
 38 29  4  0
 36 31  4  0
  1 67  1  0
  2 68  1  0
  3 69  1  0
  5 70  1  0
  8 71  1  0
 10 72  1  0
 11 73  1  0
 13 74  1  0
 15 75  1  0
 16 76  1  0
 17 77  1  0
 18 78  1  0
 20 79  1  0
 24 80  1  0
 26 81  1  0
 28 82  1  0
 30 83  1  0
 32 84  1  0
 33 85  1  0
 34 86  1  0
 35 87  1  0
 37 88  1  0
 39 89  1  0
 41 90  1  0
 43 91  1  0
 47 92  1  0
 49 93  1  0
 50 94  1  0
 51 95  1  0
 52 96  1  0
 54 97  1  0
 56 98  1  0
 58 99  1  0
 60100  1  0
 61101  1  0
 62102  1  0
 63103  1  0
 65104  1  0
M  END
