
     RDKit          3D

104118  0  0  0  0  0  0  0  0999 V2000
  -13.3041   -4.5341    0.2853 C   0  0  0  0  0  0  0  0  0  0  0  0
  -14.1019   -3.4362    0.5898 C   0  0  0  0  0  0  0  0  0  0  0  0
  -13.5518   -2.1533    0.5810 C   0  0  0  0  0  0  0  0  0  0  0  0
  -12.1959   -1.9516    0.2674 C   0  0  0  0  0  0  0  0  0  0  0  0
  -11.6209   -0.6656    0.2522 C   0  0  0  0  0  0  0  0  0  0  0  0
  -10.2549   -0.4261   -0.0604 C   0  0  0  0  0  0  0  0  0  0  0  0
   -9.4760   -1.5646   -0.3628 C   0  0  0  0  0  0  0  0  0  0  0  0
  -10.0425   -2.8523   -0.3501 C   0  0  0  0  0  0  0  0  0  0  0  0
  -11.3922   -3.0619   -0.0394 C   0  0  0  0  0  0  0  0  0  0  0  0
  -11.9569   -4.3491   -0.0277 C   0  0  0  0  0  0  0  0  0  0  0  0
   -8.1246   -1.4175   -0.6793 C   0  0  0  0  0  0  0  0  0  0  0  0
   -7.5015   -0.1616   -0.7101 C   0  0  0  0  0  0  0  0  0  0  0  0
   -6.0689   -0.1180   -1.0526 C   0  0  0  0  0  0  0  0  0  0  0  0
   -5.6548   -0.0821   -2.3895 C   0  0  0  0  0  0  0  0  0  0  0  0
   -4.2963   -0.0408   -2.7132 C   0  0  0  0  0  0  0  0  0  0  0  0
   -3.3186   -0.0356   -1.7068 C   0  0  0  0  0  0  0  0  0  0  0  0
   -1.9492    0.0076   -2.0165 C   0  0  0  0  0  0  0  0  0  0  0  0
   -0.9701    0.0148   -1.0088 C   0  0  0  0  0  0  0  0  0  0  0  0
    0.3999    0.0577   -1.3180 C   0  0  0  0  0  0  0  0  0  0  0  0
    1.3794    0.0649   -0.3107 C   0  0  0  0  0  0  0  0  0  0  0  0
    2.7492    0.1058   -0.6208 C   0  0  0  0  0  0  0  0  0  0  0  0
    3.7285    0.1106    0.3860 C   0  0  0  0  0  0  0  0  0  0  0  0
    5.0988    0.1474    0.0750 C   0  0  0  0  0  0  0  0  0  0  0  0
    6.0775    0.1425    1.0817 C   0  0  0  0  0  0  0  0  0  0  0  0
    7.5095    0.1720    0.7365 C   0  0  0  0  0  0  0  0  0  0  0  0
    8.1443    1.4216    0.7001 C   0  0  0  0  0  0  0  0  0  0  0  0
    9.4951    1.5548    0.3763 C   0  0  0  0  0  0  0  0  0  0  0  0
   10.0722    2.8375    0.3557 C   0  0  0  0  0  0  0  0  0  0  0  0
   11.4218    3.0345    0.0371 C   0  0  0  0  0  0  0  0  0  0  0  0
   11.9964    4.3173    0.0168 C   0  0  0  0  0  0  0  0  0  0  0  0
   13.3434    4.4906   -0.3036 C   0  0  0  0  0  0  0  0  0  0  0  0
   14.1305    3.3847   -0.6069 C   0  0  0  0  0  0  0  0  0  0  0  0
   13.5706    2.1060   -0.5899 C   0  0  0  0  0  0  0  0  0  0  0  0
   12.2146    1.9162   -0.2691 C   0  0  0  0  0  0  0  0  0  0  0  0
   11.6287    0.6348   -0.2462 C   0  0  0  0  0  0  0  0  0  0  0  0
   10.2620    0.4082    0.0735 C   0  0  0  0  0  0  0  0  0  0  0  0
    9.6310   -0.8900    0.1054 C   0  0  0  0  0  0  0  0  0  0  0  0
   10.3237   -2.0962   -0.1854 C   0  0  0  0  0  0  0  0  0  0  0  0
    9.7176   -3.3656   -0.1560 C   0  0  0  0  0  0  0  0  0  0  0  0
   10.4341   -4.5395   -0.4509 C   0  0  0  0  0  0  0  0  0  0  0  0
    9.8099   -5.7876   -0.4144 C   0  0  0  0  0  0  0  0  0  0  0  0
    8.4622   -5.8785   -0.0827 C   0  0  0  0  0  0  0  0  0  0  0  0
    7.7406   -4.7214    0.2118 C   0  0  0  0  0  0  0  0  0  0  0  0
    8.3598   -3.4598    0.1778 C   0  0  0  0  0  0  0  0  0  0  0  0
    7.6545   -2.2842    0.4696 C   0  0  0  0  0  0  0  0  0  0  0  0
    8.2530   -0.9991    0.4398 C   0  0  0  0  0  0  0  0  0  0  0  0
    5.6643    0.1109    2.4189 C   0  0  0  0  0  0  0  0  0  0  0  0
    4.3058    0.0767    2.7434 C   0  0  0  0  0  0  0  0  0  0  0  0
    3.3276    0.0745    1.7373 C   0  0  0  0  0  0  0  0  0  0  0  0
    1.9582    0.0353    2.0470 C   0  0  0  0  0  0  0  0  0  0  0  0
    0.9792    0.0293    1.0392 C   0  0  0  0  0  0  0  0  0  0  0  0
   -0.3907   -0.0128    1.3484 C   0  0  0  0  0  0  0  0  0  0  0  0
   -1.3703   -0.0215    0.3410 C   0  0  0  0  0  0  0  0  0  0  0  0
   -2.7401   -0.0658    0.6512 C   0  0  0  0  0  0  0  0  0  0  0  0
   -3.7199   -0.0737   -0.3556 C   0  0  0  0  0  0  0  0  0  0  0  0
   -5.0905   -0.1174   -0.0454 C   0  0  0  0  0  0  0  0  0  0  0  0
   -8.2579    1.0015   -0.4145 C   0  0  0  0  0  0  0  0  0  0  0  0
   -7.6730    2.2930   -0.4399 C   0  0  0  0  0  0  0  0  0  0  0  0
   -8.3927    3.4608   -0.1507 C   0  0  0  0  0  0  0  0  0  0  0  0
   -7.7884    4.7299   -0.1813 C   0  0  0  0  0  0  0  0  0  0  0  0
   -8.5249    5.8785    0.1103 C   0  0  0  0  0  0  0  0  0  0  0  0
   -9.8730    5.7717    0.4353 C   0  0  0  0  0  0  0  0  0  0  0  0
  -10.4825    4.5164    0.4685 C   0  0  0  0  0  0  0  0  0  0  0  0
   -9.7509    3.3514    0.1767 C   0  0  0  0  0  0  0  0  0  0  0  0
  -10.3433    2.0759    0.2027 C   0  0  0  0  0  0  0  0  0  0  0  0
   -9.6363    0.8778   -0.0865 C   0  0  0  0  0  0  0  0  0  0  0  0
  -13.7283   -5.5347    0.2908 H   0  0  0  0  0  0  0  0  0  0  0  0
  -15.1518   -3.5760    0.8342 H   0  0  0  0  0  0  0  0  0  0  0  0
  -14.1917   -1.3073    0.8216 H   0  0  0  0  0  0  0  0  0  0  0  0
  -12.2746    0.1677    0.4943 H   0  0  0  0  0  0  0  0  0  0  0  0
   -9.4188   -3.7128   -0.5881 H   0  0  0  0  0  0  0  0  0  0  0  0
  -11.3483   -5.2193   -0.2634 H   0  0  0  0  0  0  0  0  0  0  0  0
   -7.5269   -2.2999   -0.9091 H   0  0  0  0  0  0  0  0  0  0  0  0
   -6.3932   -0.0815   -3.1890 H   0  0  0  0  0  0  0  0  0  0  0  0
   -4.0079   -0.0113   -3.7617 H   0  0  0  0  0  0  0  0  0  0  0  0
   -1.6407    0.0374   -3.0600 H   0  0  0  0  0  0  0  0  0  0  0  0
    0.7097    0.0851   -2.3613 H   0  0  0  0  0  0  0  0  0  0  0  0
    3.0604    0.1312   -1.6639 H   0  0  0  0  0  0  0  0  0  0  0  0
    5.4159    0.1738   -0.9667 H   0  0  0  0  0  0  0  0  0  0  0  0
    7.5558    2.3103    0.9298 H   0  0  0  0  0  0  0  0  0  0  0  0
    9.4565    3.7040    0.5932 H   0  0  0  0  0  0  0  0  0  0  0  0
   11.3950    5.1928    0.2515 H   0  0  0  0  0  0  0  0  0  0  0  0
   13.7757    5.4877   -0.3157 H   0  0  0  0  0  0  0  0  0  0  0  0
   15.1802    3.5150   -0.8568 H   0  0  0  0  0  0  0  0  0  0  0  0
   14.2030    1.2540   -0.8298 H   0  0  0  0  0  0  0  0  0  0  0  0
   12.2738   -0.2051   -0.4884 H   0  0  0  0  0  0  0  0  0  0  0  0
   11.3777   -2.0643   -0.4473 H   0  0  0  0  0  0  0  0  0  0  0  0
   11.4887   -4.4883   -0.7123 H   0  0  0  0  0  0  0  0  0  0  0  0
   10.3764   -6.6860   -0.6448 H   0  0  0  0  0  0  0  0  0  0  0  0
    7.9710   -6.8473   -0.0526 H   0  0  0  0  0  0  0  0  0  0  0  0
    6.6871   -4.8093    0.4691 H   0  0  0  0  0  0  0  0  0  0  0  0
    6.6008   -2.3798    0.7297 H   0  0  0  0  0  0  0  0  0  0  0  0
    6.4037    0.1067    3.2176 H   0  0  0  0  0  0  0  0  0  0  0  0
    4.0178    0.0492    3.7920 H   0  0  0  0  0  0  0  0  0  0  0  0
    1.6500    0.0064    3.0907 H   0  0  0  0  0  0  0  0  0  0  0  0
   -0.7010   -0.0390    2.3917 H   0  0  0  0  0  0  0  0  0  0  0  0
   -3.0494   -0.0936    1.6947 H   0  0  0  0  0  0  0  0  0  0  0  0
   -5.4076   -0.1470    0.9963 H   0  0  0  0  0  0  0  0  0  0  0  0
   -6.6193    2.3998   -0.6949 H   0  0  0  0  0  0  0  0  0  0  0  0
   -6.7349    4.8300   -0.4337 H   0  0  0  0  0  0  0  0  0  0  0  0
   -8.0452    6.8534    0.0829 H   0  0  0  0  0  0  0  0  0  0  0  0
  -10.4514    6.6631    0.6627 H   0  0  0  0  0  0  0  0  0  0  0  0
  -11.5378    4.4529    0.7245 H   0  0  0  0  0  0  0  0  0  0  0  0
  -11.3981    2.0328    0.4596 H   0  0  0  0  0  0  0  0  0  0  0  0
  1  2  4  0
  2  3  4  0
  3  4  4  0
  4  5  4  0
  5  6  4  0
  6  7  4  0
  7  8  4  0
  8  9  4  0
  9 10  4  0
  7 11  4  0
 11 12  4  0
 12 13  1  0
 13 14  4  0
 14 15  4  0
 15 16  4  0
 16 17  4  0
 17 18  4  0
 18 19  4  0
 19 20  4  0
 20 21  4  0
 21 22  4  0
 22 23  4  0
 23 24  4  0
 24 25  1  0
 25 26  4  0
 26 27  4  0
 27 28  4  0
 28 29  4  0
 29 30  4  0
 30 31  4  0
 31 32  4  0
 32 33  4  0
 33 34  4  0
 34 35  4  0
 35 36  4  0
 36 37  4  0
 37 38  4  0
 38 39  4  0
 39 40  4  0
 40 41  4  0
 41 42  4  0
 42 43  4  0
 43 44  4  0
 44 45  4  0
 45 46  4  0
 24 47  4  0
 47 48  4  0
 48 49  4  0
 49 50  4  0
 50 51  4  0
 51 52  4  0
 52 53  4  0
 53 54  4  0
 54 55  4  0
 55 56  4  0
 12 57  4  0
 57 58  4  0
 58 59  4  0
 59 60  4  0
 60 61  4  0
 61 62  4  0
 62 63  4  0
 63 64  4  0
 64 65  4  0
 65 66  4  0
 10  1  4  0
 56 13  4  0
 66 57  4  0
  9  4  4  0
 55 16  4  0
 64 59  4  0
 66  6  4  0
 53 18  4  0
 51 20  4  0
 49 22  4  0
 46 25  4  0
 36 27  4  0
 46 37  4  0
 34 29  4  0
 44 39  4  0
  1 67  1  0
  2 68  1  0
  3 69  1  0
  5 70  1  0
  8 71  1  0
 10 72  1  0
 11 73  1  0
 14 74  1  0
 15 75  1  0
 17 76  1  0
 19 77  1  0
 21 78  1  0
 23 79  1  0
 26 80  1  0
 28 81  1  0
 30 82  1  0
 31 83  1  0
 32 84  1  0
 33 85  1  0
 35 86  1  0
 38 87  1  0
 40 88  1  0
 41 89  1  0
 42 90  1  0
 43 91  1  0
 45 92  1  0
 47 93  1  0
 48 94  1  0
 50 95  1  0
 52 96  1  0
 54 97  1  0
 56 98  1  0
 58 99  1  0
 60100  1  0
 61101  1  0
 62102  1  0
 63103  1  0
 65104  1  0
M  END
