
     RDKit          3D

104118  0  0  0  0  0  0  0  0999 V2000
   18.7467   -0.3249    0.5727 C   0  0  0  0  0  0  0  0  0  0  0  0
   18.1853    0.4457    1.5857 C   0  0  0  0  0  0  0  0  0  0  0  0
   16.8113    0.6906    1.5933 C   0  0  0  0  0  0  0  0  0  0  0  0
   15.9803    0.1678    0.5874 C   0  0  0  0  0  0  0  0  0  0  0  0
   14.5923    0.4041    0.5782 C   0  0  0  0  0  0  0  0  0  0  0  0
   13.7271   -0.1095   -0.4227 C   0  0  0  0  0  0  0  0  0  0  0  0
   14.3298   -0.8900   -1.4394 C   0  0  0  0  0  0  0  0  0  0  0  0
   15.7153   -1.1289   -1.4352 C   0  0  0  0  0  0  0  0  0  0  0  0
   16.5491   -0.6107   -0.4355 C   0  0  0  0  0  0  0  0  0  0  0  0
   17.9339   -0.8504   -0.4325 C   0  0  0  0  0  0  0  0  0  0  0  0
   13.5445   -1.4308   -2.4603 C   0  0  0  0  0  0  0  0  0  0  0  0
   12.1703   -1.2145   -2.4948 C   0  0  0  0  0  0  0  0  0  0  0  0
   11.5400   -0.4504   -1.5097 C   0  0  0  0  0  0  0  0  0  0  0  0
   10.1497   -0.2521   -1.5753 C   0  0  0  0  0  0  0  0  0  0  0  0
    9.4665    0.5062   -0.6148 C   0  0  0  0  0  0  0  0  0  0  0  0
    8.0744    0.7035   -0.6818 C   0  0  0  0  0  0  0  0  0  0  0  0
    7.3912    1.4682    0.2782 C   0  0  0  0  0  0  0  0  0  0  0  0
    5.9367    1.6655    0.1943 C   0  0  0  0  0  0  0  0  0  0  0  0
    5.3879    2.9520    0.1137 C   0  0  0  0  0  0  0  0  0  0  0  0
    4.0049    3.1397    0.0355 C   0  0  0  0  0  0  0  0  0  0  0  0
    3.1312    2.0428    0.0391 C   0  0  0  0  0  0  0  0  0  0  0  0
    1.7390    2.2140   -0.0359 C   0  0  0  0  0  0  0  0  0  0  0  0
    0.8647    1.1142   -0.0284 C   0  0  0  0  0  0  0  0  0  0  0  0
   -0.5278    1.2847   -0.1020 C   0  0  0  0  0  0  0  0  0  0  0  0
   -1.4029    0.1856   -0.0930 C   0  0  0  0  0  0  0  0  0  0  0  0
   -2.7955    0.3576   -0.1661 C   0  0  0  0  0  0  0  0  0  0  0  0
   -3.6716   -0.7404   -0.1556 C   0  0  0  0  0  0  0  0  0  0  0  0
   -5.0659   -0.5676   -0.2268 C   0  0  0  0  0  0  0  0  0  0  0  0
   -5.9482   -1.6615   -0.2183 C   0  0  0  0  0  0  0  0  0  0  0  0
   -7.4038   -1.4596   -0.2902 C   0  0  0  0  0  0  0  0  0  0  0  0
   -8.1690   -2.0638   -1.2960 C   0  0  0  0  0  0  0  0  0  0  0  0
   -9.5517   -1.8650   -1.3643 C   0  0  0  0  0  0  0  0  0  0  0  0
  -10.2100   -1.0563   -0.4251 C   0  0  0  0  0  0  0  0  0  0  0  0
  -11.6013   -0.8425   -0.4766 C   0  0  0  0  0  0  0  0  0  0  0  0
  -12.2942   -0.0318    0.4601 C   0  0  0  0  0  0  0  0  0  0  0  0
  -11.5112    0.5683    1.4759 C   0  0  0  0  0  0  0  0  0  0  0  0
  -10.1222    0.3581    1.5302 C   0  0  0  0  0  0  0  0  0  0  0  0
   -9.4601   -0.4453    0.5922 C   0  0  0  0  0  0  0  0  0  0  0  0
   -8.0689   -0.6524    0.6481 C   0  0  0  0  0  0  0  0  0  0  0  0
  -12.1188    1.3790    2.4376 C   0  0  0  0  0  0  0  0  0  0  0  0
  -13.4909    1.6090    2.4138 C   0  0  0  0  0  0  0  0  0  0  0  0
  -14.2965    1.0358    1.4271 C   0  0  0  0  0  0  0  0  0  0  0  0
  -15.6791    1.2905    1.4332 C   0  0  0  0  0  0  0  0  0  0  0  0
  -16.5335    0.7422    0.4675 C   0  0  0  0  0  0  0  0  0  0  0  0
  -17.9154    0.9982    0.4751 C   0  0  0  0  0  0  0  0  0  0  0  0
  -18.7492    0.4425   -0.4959 C   0  0  0  0  0  0  0  0  0  0  0  0
  -18.2120   -0.3747   -1.4850 C   0  0  0  0  0  0  0  0  0  0  0  0
  -16.8409   -0.6362   -1.5029 C   0  0  0  0  0  0  0  0  0  0  0  0
  -15.9886   -0.0835   -0.5312 C   0  0  0  0  0  0  0  0  0  0  0  0
  -14.6031   -0.3355   -0.5323 C   0  0  0  0  0  0  0  0  0  0  0  0
  -13.7173    0.2078    0.4345 C   0  0  0  0  0  0  0  0  0  0  0  0
   -5.4001   -2.9485   -0.1376 C   0  0  0  0  0  0  0  0  0  0  0  0
   -4.0166   -3.1382   -0.0647 C   0  0  0  0  0  0  0  0  0  0  0  0
   -3.1409   -2.0429   -0.0725 C   0  0  0  0  0  0  0  0  0  0  0  0
   -1.7485   -2.2154    0.0008 C   0  0  0  0  0  0  0  0  0  0  0  0
   -0.8728   -1.1163   -0.0082 C   0  0  0  0  0  0  0  0  0  0  0  0
    0.5201   -1.2867    0.0652 C   0  0  0  0  0  0  0  0  0  0  0  0
    1.3954   -0.1876    0.0558 C   0  0  0  0  0  0  0  0  0  0  0  0
    2.7883   -0.3585    0.1288 C   0  0  0  0  0  0  0  0  0  0  0  0
    3.6634    0.7405    0.1210 C   0  0  0  0  0  0  0  0  0  0  0  0
    5.0577    0.5695    0.1954 C   0  0  0  0  0  0  0  0  0  0  0  0
    8.1360    2.0373    1.3188 C   0  0  0  0  0  0  0  0  0  0  0  0
    9.5184    1.8463    1.3993 C   0  0  0  0  0  0  0  0  0  0  0  0
   10.1961    1.0822    0.4372 C   0  0  0  0  0  0  0  0  0  0  0  0
   11.5880    0.8797    0.5001 C   0  0  0  0  0  0  0  0  0  0  0  0
   12.3022    0.1155   -0.4590 C   0  0  0  0  0  0  0  0  0  0  0  0
   19.8161   -0.5177    0.5634 H   0  0  0  0  0  0  0  0  0  0  0  0
   18.8148    0.8568    2.3703 H   0  0  0  0  0  0  0  0  0  0  0  0
   16.3909    1.2956    2.3936 H   0  0  0  0  0  0  0  0  0  0  0  0
   14.1860    1.0098    1.3834 H   0  0  0  0  0  0  0  0  0  0  0  0
   16.1557   -1.7318   -2.2279 H   0  0  0  0  0  0  0  0  0  0  0  0
   18.3899   -1.4505   -1.2167 H   0  0  0  0  0  0  0  0  0  0  0  0
   13.9961   -2.0315   -3.2473 H   0  0  0  0  0  0  0  0  0  0  0  0
   11.5949   -1.6533   -3.3074 H   0  0  0  0  0  0  0  0  0  0  0  0
    9.5856   -0.6974   -2.3936 H   0  0  0  0  0  0  0  0  0  0  0  0
    7.5123    0.2632   -1.5041 H   0  0  0  0  0  0  0  0  0  0  0  0
    6.0394    3.8237    0.0998 H   0  0  0  0  0  0  0  0  0  0  0  0
    3.6170    4.1538   -0.0299 H   0  0  0  0  0  0  0  0  0  0  0  0
    1.3294    3.2205   -0.1000 H   0  0  0  0  0  0  0  0  0  0  0  0
   -0.9380    2.2910   -0.1675 H   0  0  0  0  0  0  0  0  0  0  0  0
   -3.2051    1.3641   -0.2320 H   0  0  0  0  0  0  0  0  0  0  0  0
   -5.4741    0.4394   -0.3015 H   0  0  0  0  0  0  0  0  0  0  0  0
   -7.6894   -2.6881   -2.0475 H   0  0  0  0  0  0  0  0  0  0  0  0
  -10.1107   -2.3475   -2.1631 H   0  0  0  0  0  0  0  0  0  0  0  0
  -12.1504   -1.3300   -1.2776 H   0  0  0  0  0  0  0  0  0  0  0  0
   -9.5422    0.8307    2.3215 H   0  0  0  0  0  0  0  0  0  0  0  0
   -7.4925   -0.1845    1.4450 H   0  0  0  0  0  0  0  0  0  0  0  0
  -11.5273    1.8445    3.2234 H   0  0  0  0  0  0  0  0  0  0  0  0
  -13.9248    2.2464    3.1817 H   0  0  0  0  0  0  0  0  0  0  0  0
  -16.1012    1.9302    2.2068 H   0  0  0  0  0  0  0  0  0  0  0  0
  -18.3526    1.6349    1.2410 H   0  0  0  0  0  0  0  0  0  0  0  0
  -19.8161    0.6485   -0.4787 H   0  0  0  0  0  0  0  0  0  0  0  0
  -18.8578   -0.8094   -2.2432 H   0  0  0  0  0  0  0  0  0  0  0  0
  -16.4400   -1.2777   -2.2845 H   0  0  0  0  0  0  0  0  0  0  0  0
  -14.2154   -0.9777   -1.3183 H   0  0  0  0  0  0  0  0  0  0  0  0
   -6.0518   -3.8199   -0.1173 H   0  0  0  0  0  0  0  0  0  0  0  0
   -3.6296   -4.1527    0.0017 H   0  0  0  0  0  0  0  0  0  0  0  0
   -1.3399   -3.2222    0.0660 H   0  0  0  0  0  0  0  0  0  0  0  0
    0.9308   -2.2928    0.1312 H   0  0  0  0  0  0  0  0  0  0  0  0
    3.1993   -1.3645    0.1940 H   0  0  0  0  0  0  0  0  0  0  0  0
    5.4690   -0.4364    0.2690 H   0  0  0  0  0  0  0  0  0  0  0  0
    7.6402    2.6279    2.0868 H   0  0  0  0  0  0  0  0  0  0  0  0
   10.0616    2.3004    2.2250 H   0  0  0  0  0  0  0  0  0  0  0  0
   12.1207    1.3393    1.3282 H   0  0  0  0  0  0  0  0  0  0  0  0
  1  2  4  0
  2  3  4  0
  3  4  4  0
  4  5  4  0
  5  6  4  0
  6  7  4  0
  7  8  4  0
  8  9  4  0
  9 10  4  0
  7 11  4  0
 11 12  4  0
 12 13  4  0
 13 14  4  0
 14 15  4  0
 15 16  4  0
 16 17  4  0
 17 18  1  0
 18 19  4  0
 19 20  4  0
 20 21  4  0
 21 22  4  0
 22 23  4  0
 23 24  4  0
 24 25  4  0
 25 26  4  0
 26 27  4  0
 27 28  4  0
 28 29  4  0
 29 30  1  0
 30 31  4  0
 31 32  4  0
 32 33  4  0
 33 34  4  0
 34 35  4  0
 35 36  4  0
 36 37  4  0
 37 38  4  0
 38 39  4  0
 36 40  4  0
 40 41  4  0
 41 42  4  0
 42 43  4  0
 43 44  4  0
 44 45  4  0
 45 46  4  0
 46 47  4  0
 47 48  4  0
 48 49  4  0
 49 50  4  0
 50 51  4  0
 29 52  4  0
 52 53  4  0
 53 54  4  0
 54 55  4  0
 55 56  4  0
 56 57  4  0
 57 58  4  0
 58 59  4  0
 59 60  4  0
 60 61  4  0
 17 62  4  0
 62 63  4  0
 63 64  4  0
 64 65  4  0
 65 66  4  0
 10  1  4  0
 66 13  4  0
  9  4  4  0
 64 15  4  0
 66  6  4  0
 61 18  4  0
 60 21  4  0
 58 23  4  0
 56 25  4  0
 54 27  4  0
 39 30  4  0
 51 42  4  0
 38 33  4  0
 49 44  4  0
 51 35  4  0
  1 67  1  0
  2 68  1  0
  3 69  1  0
  5 70  1  0
  8 71  1  0
 10 72  1  0
 11 73  1  0
 12 74  1  0
 14 75  1  0
 16 76  1  0
 19 77  1  0
 20 78  1  0
 22 79  1  0
 24 80  1  0
 26 81  1  0
 28 82  1  0
 31 83  1  0
 32 84  1  0
 34 85  1  0
 37 86  1  0
 39 87  1  0
 40 88  1  0
 41 89  1  0
 43 90  1  0
 45 91  1  0
 46 92  1  0
 47 93  1  0
 48 94  1  0
 50 95  1  0
 52 96  1  0
 53 97  1  0
 55 98  1  0
 57 99  1  0
 59100  1  0
 61101  1  0
 62102  1  0
 63103  1  0
 65104  1  0
M  END
