
     RDKit          3D

104118  0  0  0  0  0  0  0  0999 V2000
    8.6922    4.7353    1.7408 C   0  0  0  0  0  0  0  0  0  0  0  0
    7.4841    4.0653    1.9047 C   0  0  0  0  0  0  0  0  0  0  0  0
    7.2541    2.8690    1.2234 C   0  0  0  0  0  0  0  0  0  0  0  0
    8.2298    2.3273    0.3688 C   0  0  0  0  0  0  0  0  0  0  0  0
    8.0153    1.1224   -0.3268 C   0  0  0  0  0  0  0  0  0  0  0  0
    8.9775    0.5514   -1.2003 C   0  0  0  0  0  0  0  0  0  0  0  0
   10.1950    1.2586   -1.3490 C   0  0  0  0  0  0  0  0  0  0  0  0
   10.4158    2.4611   -0.6541 C   0  0  0  0  0  0  0  0  0  0  0  0
    9.4495    3.0057    0.2027 C   0  0  0  0  0  0  0  0  0  0  0  0
    9.6697    4.2092    0.8949 C   0  0  0  0  0  0  0  0  0  0  0  0
   11.1896    0.7616   -2.1950 C   0  0  0  0  0  0  0  0  0  0  0  0
   11.0003   -0.4233   -2.9002 C   0  0  0  0  0  0  0  0  0  0  0  0
    9.8114   -1.1476   -2.7787 C   0  0  0  0  0  0  0  0  0  0  0  0
    9.6475   -2.3394   -3.5042 C   0  0  0  0  0  0  0  0  0  0  0  0
    8.4758   -3.1056   -3.4213 C   0  0  0  0  0  0  0  0  0  0  0  0
    8.3487   -4.2918   -4.1614 C   0  0  0  0  0  0  0  0  0  0  0  0
    7.1919   -5.0617   -4.0859 C   0  0  0  0  0  0  0  0  0  0  0  0
    6.1447   -4.6527   -3.2677 C   0  0  0  0  0  0  0  0  0  0  0  0
    6.2368   -3.4690   -2.5133 C   0  0  0  0  0  0  0  0  0  0  0  0
    5.0911   -3.0901   -1.6702 C   0  0  0  0  0  0  0  0  0  0  0  0
    4.9021   -3.6808   -0.4152 C   0  0  0  0  0  0  0  0  0  0  0  0
    3.8239   -3.3093    0.3916 C   0  0  0  0  0  0  0  0  0  0  0  0
    2.9079   -2.3373   -0.0384 C   0  0  0  0  0  0  0  0  0  0  0  0
    1.8226   -1.9487    0.7638 C   0  0  0  0  0  0  0  0  0  0  0  0
    0.9072   -0.9730    0.3349 C   0  0  0  0  0  0  0  0  0  0  0  0
   -0.1782   -0.5832    1.1375 C   0  0  0  0  0  0  0  0  0  0  0  0
   -1.0940    0.3924    0.7092 C   0  0  0  0  0  0  0  0  0  0  0  0
   -2.1800    0.7806    1.5116 C   0  0  0  0  0  0  0  0  0  0  0  0
   -3.0950    1.7565    1.0835 C   0  0  0  0  0  0  0  0  0  0  0  0
   -4.1816    2.1438    1.8865 C   0  0  0  0  0  0  0  0  0  0  0  0
   -5.1018    3.1127    1.4553 C   0  0  0  0  0  0  0  0  0  0  0  0
   -6.2415    3.4970    2.3041 C   0  0  0  0  0  0  0  0  0  0  0  0
   -7.4189    2.6973    2.4082 C   0  0  0  0  0  0  0  0  0  0  0  0
   -7.6097    1.4807    1.7029 C   0  0  0  0  0  0  0  0  0  0  0  0
   -8.7733    0.6742    1.8066 C   0  0  0  0  0  0  0  0  0  0  0  0
   -9.7887    1.1467    2.6671 C   0  0  0  0  0  0  0  0  0  0  0  0
   -9.6245    2.3523    3.3688 C   0  0  0  0  0  0  0  0  0  0  0  0
   -8.4625    3.1284    3.2524 C   0  0  0  0  0  0  0  0  0  0  0  0
   -8.3359    4.3285    3.9699 C   0  0  0  0  0  0  0  0  0  0  0  0
   -7.1884    5.1084    3.8632 C   0  0  0  0  0  0  0  0  0  0  0  0
   -6.1497    4.6947    3.0368 C   0  0  0  0  0  0  0  0  0  0  0  0
  -10.9672    0.4126    2.8240 C   0  0  0  0  0  0  0  0  0  0  0  0
  -11.1575   -0.7859    2.1428 C   0  0  0  0  0  0  0  0  0  0  0  0
  -10.1748   -1.2863    1.2852 C   0  0  0  0  0  0  0  0  0  0  0  0
  -10.3974   -2.5020    0.6147 C   0  0  0  0  0  0  0  0  0  0  0  0
   -9.4440   -3.0496   -0.2542 C   0  0  0  0  0  0  0  0  0  0  0  0
   -9.6666   -4.2658   -0.9226 C   0  0  0  0  0  0  0  0  0  0  0  0
   -8.7033   -4.7941   -1.7830 C   0  0  0  0  0  0  0  0  0  0  0  0
   -7.5072   -4.1135   -1.9855 C   0  0  0  0  0  0  0  0  0  0  0  0
   -7.2745   -2.9047   -1.3275 C   0  0  0  0  0  0  0  0  0  0  0  0
   -8.2357   -2.3608   -0.4579 C   0  0  0  0  0  0  0  0  0  0  0  0
   -8.0187   -1.1435    0.2151 C   0  0  0  0  0  0  0  0  0  0  0  0
   -8.9680   -0.5691    1.1003 C   0  0  0  0  0  0  0  0  0  0  0  0
   -4.9142    3.7029    0.1999 C   0  0  0  0  0  0  0  0  0  0  0  0
   -3.8373    3.3304   -0.6083 C   0  0  0  0  0  0  0  0  0  0  0  0
   -2.9209    2.3582   -0.1795 C   0  0  0  0  0  0  0  0  0  0  0  0
   -1.8349    1.9700   -0.9813 C   0  0  0  0  0  0  0  0  0  0  0  0
   -0.9194    0.9942   -0.5523 C   0  0  0  0  0  0  0  0  0  0  0  0
    0.1665    0.6050   -1.3544 C   0  0  0  0  0  0  0  0  0  0  0  0
    1.0814   -0.3719   -0.9268 C   0  0  0  0  0  0  0  0  0  0  0  0
    2.1664   -0.7614   -1.7303 C   0  0  0  0  0  0  0  0  0  0  0  0
    3.0822   -1.7364   -1.3020 C   0  0  0  0  0  0  0  0  0  0  0  0
    4.1700   -2.1231   -2.1037 C   0  0  0  0  0  0  0  0  0  0  0  0
    7.4226   -2.6787   -2.5868 C   0  0  0  0  0  0  0  0  0  0  0  0
    7.6122   -1.4753   -1.8594 C   0  0  0  0  0  0  0  0  0  0  0  0
    8.7848   -0.6787   -1.9297 C   0  0  0  0  0  0  0  0  0  0  0  0
    8.8746    5.6671    2.2691 H   0  0  0  0  0  0  0  0  0  0  0  0
    6.7191    4.4718    2.5609 H   0  0  0  0  0  0  0  0  0  0  0  0
    6.3027    2.3599    1.3628 H   0  0  0  0  0  0  0  0  0  0  0  0
    7.0606    0.6254   -0.1749 H   0  0  0  0  0  0  0  0  0  0  0  0
   11.3602    2.9870   -0.7843 H   0  0  0  0  0  0  0  0  0  0  0  0
   10.6078    4.7466    0.7773 H   0  0  0  0  0  0  0  0  0  0  0  0
   12.1297    1.2955   -2.3179 H   0  0  0  0  0  0  0  0  0  0  0  0
   11.7991   -0.7749   -3.5501 H   0  0  0  0  0  0  0  0  0  0  0  0
   10.4546   -2.6799   -4.1518 H   0  0  0  0  0  0  0  0  0  0  0  0
    9.1578   -4.6272   -4.8072 H   0  0  0  0  0  0  0  0  0  0  0  0
    7.1063   -5.9776   -4.6643 H   0  0  0  0  0  0  0  0  0  0  0  0
    5.2423   -5.2598   -3.2184 H   0  0  0  0  0  0  0  0  0  0  0  0
    5.6034   -4.4309   -0.0547 H   0  0  0  0  0  0  0  0  0  0  0  0
    3.7082   -3.7850    1.3630 H   0  0  0  0  0  0  0  0  0  0  0  0
    1.6906   -2.4122    1.7397 H   0  0  0  0  0  0  0  0  0  0  0  0
   -0.3121   -1.0472    2.1132 H   0  0  0  0  0  0  0  0  0  0  0  0
   -2.3189    0.3142    2.4857 H   0  0  0  0  0  0  0  0  0  0  0  0
   -4.3234    1.6818    2.8628 H   0  0  0  0  0  0  0  0  0  0  0  0
   -6.8096    1.1560    1.0433 H   0  0  0  0  0  0  0  0  0  0  0  0
  -10.4236    2.6954    4.0247 H   0  0  0  0  0  0  0  0  0  0  0  0
   -9.1382    4.6666    4.6226 H   0  0  0  0  0  0  0  0  0  0  0  0
   -7.1031    6.0347    4.4249 H   0  0  0  0  0  0  0  0  0  0  0  0
   -5.2529    5.3078    2.9647 H   0  0  0  0  0  0  0  0  0  0  0  0
  -11.7570    0.7669    3.4833 H   0  0  0  0  0  0  0  0  0  0  0  0
  -12.0892   -1.3273    2.2930 H   0  0  0  0  0  0  0  0  0  0  0  0
  -11.3333   -3.0356    0.7729 H   0  0  0  0  0  0  0  0  0  0  0  0
  -10.5959   -4.8113   -0.7754 H   0  0  0  0  0  0  0  0  0  0  0  0
   -8.8878   -5.7356   -2.2931 H   0  0  0  0  0  0  0  0  0  0  0  0
   -6.7539   -4.5211   -2.6544 H   0  0  0  0  0  0  0  0  0  0  0  0
   -6.3328   -2.3871   -1.4980 H   0  0  0  0  0  0  0  0  0  0  0  0
   -7.0732   -0.6385    0.0345 H   0  0  0  0  0  0  0  0  0  0  0  0
   -5.6148    4.4542   -0.1593 H   0  0  0  0  0  0  0  0  0  0  0  0
   -3.7227    3.8060   -1.5799 H   0  0  0  0  0  0  0  0  0  0  0  0
   -1.7003    2.4355   -1.9561 H   0  0  0  0  0  0  0  0  0  0  0  0
    0.3026    1.0705   -2.3293 H   0  0  0  0  0  0  0  0  0  0  0  0
    2.3005   -0.2974   -2.7060 H   0  0  0  0  0  0  0  0  0  0  0  0
    4.3135   -1.6607   -3.0795 H   0  0  0  0  0  0  0  0  0  0  0  0
    6.8036   -1.1534   -1.2090 H   0  0  0  0  0  0  0  0  0  0  0  0
  1  2  4  0
  2  3  4  0
  3  4  4  0
  4  5  4  0
  5  6  4  0
  6  7  4  0
  7  8  4  0
  8  9  4  0
  9 10  4  0
  7 11  4  0
 11 12  4  0
 12 13  4  0
 13 14  4  0
 14 15  4  0
 15 16  4  0
 16 17  4  0
 17 18  4  0
 18 19  4  0
 19 20  1  0
 20 21  4  0
 21 22  4  0
 22 23  4  0
 23 24  4  0
 24 25  4  0
 25 26  4  0
 26 27  4  0
 27 28  4  0
 28 29  4  0
 29 30  4  0
 30 31  4  0
 31 32  1  0
 32 33  4  0
 33 34  4  0
 34 35  4  0
 35 36  4  0
 36 37  4  0
 37 38  4  0
 38 39  4  0
 39 40  4  0
 40 41  4  0
 36 42  4  0
 42 43  4  0
 43 44  4  0
 44 45  4  0
 45 46  4  0
 46 47  4  0
 47 48  4  0
 48 49  4  0
 49 50  4  0
 50 51  4  0
 51 52  4  0
 52 53  4  0
 31 54  4  0
 54 55  4  0
 55 56  4  0
 56 57  4  0
 57 58  4  0
 58 59  4  0
 59 60  4  0
 60 61  4  0
 61 62  4  0
 62 63  4  0
 19 64  4  0
 64 65  4  0
 65 66  4  0
 10  1  4  0
 66 13  4  0
  9  4  4  0
 64 15  4  0
 66  6  4  0
 63 20  4  0
 62 23  4  0
 60 25  4  0
 58 27  4  0
 56 29  4  0
 41 32  4  0
 53 44  4  0
 38 33  4  0
 51 46  4  0
 53 35  4  0
  1 67  1  0
  2 68  1  0
  3 69  1  0
  5 70  1  0
  8 71  1  0
 10 72  1  0
 11 73  1  0
 12 74  1  0
 14 75  1  0
 16 76  1  0
 17 77  1  0
 18 78  1  0
 21 79  1  0
 22 80  1  0
 24 81  1  0
 26 82  1  0
 28 83  1  0
 30 84  1  0
 34 85  1  0
 37 86  1  0
 39 87  1  0
 40 88  1  0
 41 89  1  0
 42 90  1  0
 43 91  1  0
 45 92  1  0
 47 93  1  0
 48 94  1  0
 49 95  1  0
 50 96  1  0
 52 97  1  0
 54 98  1  0
 55 99  1  0
 57100  1  0
 59101  1  0
 61102  1  0
 63103  1  0
 65104  1  0
M  END
