
     RDKit          3D

 96110  0  0  0  0  0  0  0  0999 V2000
  -16.4656    0.5411   -1.5405 C   0  0  0  0  0  0  0  0  0  0  0  0
  -15.7202    1.3142   -2.4161 C   0  0  0  0  0  0  0  0  0  0  0  0
  -14.3402    1.4422   -2.2303 C   0  0  0  0  0  0  0  0  0  0  0  0
  -13.6549    0.8036   -1.1642 C   0  0  0  0  0  0  0  0  0  0  0  0
  -14.4424    0.0202   -0.2851 C   0  0  0  0  0  0  0  0  0  0  0  0
  -15.8293   -0.1012   -0.4822 C   0  0  0  0  0  0  0  0  0  0  0  0
  -13.8415   -0.6411    0.7909 C   0  0  0  0  0  0  0  0  0  0  0  0
  -12.4674   -0.5513    1.0294 C   0  0  0  0  0  0  0  0  0  0  0  0
  -11.8908   -1.2237    2.1154 C   0  0  0  0  0  0  0  0  0  0  0  0
  -10.5212   -1.1406    2.3632 C   0  0  0  0  0  0  0  0  0  0  0  0
   -9.6935   -0.3822    1.5301 C   0  0  0  0  0  0  0  0  0  0  0  0
  -10.2600    0.3007    0.4291 C   0  0  0  0  0  0  0  0  0  0  0  0
   -9.4230    1.0625   -0.4108 C   0  0  0  0  0  0  0  0  0  0  0  0
   -8.0446    1.1334   -0.1474 C   0  0  0  0  0  0  0  0  0  0  0  0
   -7.4702    0.4620    0.9417 C   0  0  0  0  0  0  0  0  0  0  0  0
   -6.0258    0.5466    1.2058 C   0  0  0  0  0  0  0  0  0  0  0  0
   -5.5438    1.0234    2.4319 C   0  0  0  0  0  0  0  0  0  0  0  0
   -4.1706    1.1071    2.6809 C   0  0  0  0  0  0  0  0  0  0  0  0
   -3.2401    0.7129    1.7086 C   0  0  0  0  0  0  0  0  0  0  0  0
   -1.8571    0.7907    1.9425 C   0  0  0  0  0  0  0  0  0  0  0  0
   -0.9259    0.3938    0.9680 C   0  0  0  0  0  0  0  0  0  0  0  0
    0.4574    0.4718    1.2014 C   0  0  0  0  0  0  0  0  0  0  0  0
    1.3896    0.0742    0.2281 C   0  0  0  0  0  0  0  0  0  0  0  0
    2.7730    0.1524    0.4629 C   0  0  0  0  0  0  0  0  0  0  0  0
    3.7060   -0.2456   -0.5092 C   0  0  0  0  0  0  0  0  0  0  0  0
    5.0911   -0.1681   -0.2739 C   0  0  0  0  0  0  0  0  0  0  0  0
    6.0285   -0.5621   -1.2438 C   0  0  0  0  0  0  0  0  0  0  0  0
    7.4728   -0.4741   -0.9791 C   0  0  0  0  0  0  0  0  0  0  0  0
    8.3160    0.2713   -1.8160 C   0  0  0  0  0  0  0  0  0  0  0  0
    9.6962    0.3663   -1.5729 C   0  0  0  0  0  0  0  0  0  0  0  0
   10.2610   -0.3025   -0.4625 C   0  0  0  0  0  0  0  0  0  0  0  0
    9.4233   -1.0559    0.3842 C   0  0  0  0  0  0  0  0  0  0  0  0
    8.0459   -1.1325    0.1186 C   0  0  0  0  0  0  0  0  0  0  0  0
    9.9848   -1.7162    1.4768 C   0  0  0  0  0  0  0  0  0  0  0  0
   11.3569   -1.6319    1.7321 C   0  0  0  0  0  0  0  0  0  0  0  0
   12.2354   -0.8865    0.9119 C   0  0  0  0  0  0  0  0  0  0  0  0
   11.6579   -0.2177   -0.2000 C   0  0  0  0  0  0  0  0  0  0  0  0
   12.4681    0.5467   -1.0671 C   0  0  0  0  0  0  0  0  0  0  0  0
   13.8413    0.6424   -0.8257 C   0  0  0  0  0  0  0  0  0  0  0  0
   14.4400   -0.0037    0.2606 C   0  0  0  0  0  0  0  0  0  0  0  0
   15.8257    0.1237    0.4610 C   0  0  0  0  0  0  0  0  0  0  0  0
   16.4593   -0.5032    1.5300 C   0  0  0  0  0  0  0  0  0  0  0  0
   15.7126   -1.2668    2.4129 C   0  0  0  0  0  0  0  0  0  0  0  0
   14.3340   -1.4010    2.2237 C   0  0  0  0  0  0  0  0  0  0  0  0
   13.6514   -0.7778    1.1470 C   0  0  0  0  0  0  0  0  0  0  0  0
   11.8933    1.2047   -2.1628 C   0  0  0  0  0  0  0  0  0  0  0  0
   10.5245    1.1161   -2.4131 C   0  0  0  0  0  0  0  0  0  0  0  0
    5.5476   -1.0414   -2.4694 C   0  0  0  0  0  0  0  0  0  0  0  0
    4.1746   -1.1268   -2.7189 C   0  0  0  0  0  0  0  0  0  0  0  0
    3.2427   -0.7321   -1.7479 C   0  0  0  0  0  0  0  0  0  0  0  0
    1.8597   -0.8109   -1.9828 C   0  0  0  0  0  0  0  0  0  0  0  0
    0.9273   -0.4134   -1.0094 C   0  0  0  0  0  0  0  0  0  0  0  0
   -0.4564   -0.4911   -1.2429 C   0  0  0  0  0  0  0  0  0  0  0  0
   -1.3887   -0.0932   -0.2696 C   0  0  0  0  0  0  0  0  0  0  0  0
   -2.7724   -0.1703   -0.5035 C   0  0  0  0  0  0  0  0  0  0  0  0
   -3.7044    0.2280    0.4696 C   0  0  0  0  0  0  0  0  0  0  0  0
   -5.0896    0.1523    0.2350 C   0  0  0  0  0  0  0  0  0  0  0  0
   -8.3126   -0.2919    1.7716 C   0  0  0  0  0  0  0  0  0  0  0  0
   -9.9865    1.7369   -1.4938 C   0  0  0  0  0  0  0  0  0  0  0  0
  -11.3597    1.6588   -1.7462 C   0  0  0  0  0  0  0  0  0  0  0  0
  -12.2376    0.9056   -0.9325 C   0  0  0  0  0  0  0  0  0  0  0  0
  -11.6580    0.2220    0.1694 C   0  0  0  0  0  0  0  0  0  0  0  0
  -17.5383    0.4366   -1.6779 H   0  0  0  0  0  0  0  0  0  0  0  0
  -16.2057    1.8209   -3.2461 H   0  0  0  0  0  0  0  0  0  0  0  0
  -13.8056    2.0602   -2.9459 H   0  0  0  0  0  0  0  0  0  0  0  0
  -16.4309   -0.7040    0.1954 H   0  0  0  0  0  0  0  0  0  0  0  0
  -14.4580   -1.2402    1.4595 H   0  0  0  0  0  0  0  0  0  0  0  0
  -12.5062   -1.8228    2.7835 H   0  0  0  0  0  0  0  0  0  0  0  0
  -10.1082   -1.6760    3.2152 H   0  0  0  0  0  0  0  0  0  0  0  0
   -7.4060    1.7325   -0.7953 H   0  0  0  0  0  0  0  0  0  0  0  0
   -6.2391    1.3476    3.2040 H   0  0  0  0  0  0  0  0  0  0  0  0
   -3.8348    1.4867    3.6434 H   0  0  0  0  0  0  0  0  0  0  0  0
   -1.4996    1.1663    2.8997 H   0  0  0  0  0  0  0  0  0  0  0  0
    0.8158    0.8486    2.1579 H   0  0  0  0  0  0  0  0  0  0  0  0
    3.1302    0.5299    1.4194 H   0  0  0  0  0  0  0  0  0  0  0  0
    5.4496    0.2174    0.6797 H   0  0  0  0  0  0  0  0  0  0  0  0
    7.8851    0.7979   -2.6664 H   0  0  0  0  0  0  0  0  0  0  0  0
    7.4074   -1.7253    0.7722 H   0  0  0  0  0  0  0  0  0  0  0  0
    9.3629   -2.3067    2.1461 H   0  0  0  0  0  0  0  0  0  0  0  0
   11.7257   -2.1713    2.5998 H   0  0  0  0  0  0  0  0  0  0  0  0
   14.4583    1.2344   -1.5000 H   0  0  0  0  0  0  0  0  0  0  0  0
   16.4286    0.7190   -0.2221 H   0  0  0  0  0  0  0  0  0  0  0  0
   17.5311   -0.3941    1.6700 H   0  0  0  0  0  0  0  0  0  0  0  0
   16.1961   -1.7612    3.2513 H   0  0  0  0  0  0  0  0  0  0  0  0
   13.7984   -2.0109    2.9453 H   0  0  0  0  0  0  0  0  0  0  0  0
   12.5094    1.7968   -2.8365 H   0  0  0  0  0  0  0  0  0  0  0  0
   10.1126    1.6405   -3.2724 H   0  0  0  0  0  0  0  0  0  0  0  0
    6.2434   -1.3659   -3.2408 H   0  0  0  0  0  0  0  0  0  0  0  0
    3.8401   -1.5083   -3.6810 H   0  0  0  0  0  0  0  0  0  0  0  0
    1.5035   -1.1878   -2.9398 H   0  0  0  0  0  0  0  0  0  0  0  0
   -0.8138   -0.8681   -2.1996 H   0  0  0  0  0  0  0  0  0  0  0  0
   -3.1311   -0.5473   -1.4597 H   0  0  0  0  0  0  0  0  0  0  0  0
   -5.4488   -0.2315   -0.7190 H   0  0  0  0  0  0  0  0  0  0  0  0
   -7.8808   -0.8282    2.6156 H   0  0  0  0  0  0  0  0  0  0  0  0
   -9.3652    2.3343   -2.1576 H   0  0  0  0  0  0  0  0  0  0  0  0
  -11.7302    2.2092   -2.6063 H   0  0  0  0  0  0  0  0  0  0  0  0
  1  2  4  0
  2  3  4  0
  3  4  4  0
  4  5  4  0
  5  6  4  0
  5  7  4  0
  7  8  4  0
  8  9  4  0
  9 10  4  0
 10 11  4  0
 11 12  4  0
 12 13  4  0
 13 14  4  0
 14 15  4  0
 15 16  1  0
 16 17  4  0
 17 18  4  0
 18 19  4  0
 19 20  4  0
 20 21  4  0
 21 22  4  0
 22 23  4  0
 23 24  4  0
 24 25  4  0
 25 26  4  0
 26 27  4  0
 27 28  1  0
 28 29  4  0
 29 30  4  0
 30 31  4  0
 31 32  4  0
 32 33  4  0
 32 34  4  0
 34 35  4  0
 35 36  4  0
 36 37  4  0
 37 38  4  0
 38 39  4  0
 39 40  4  0
 40 41  4  0
 41 42  4  0
 42 43  4  0
 43 44  4  0
 44 45  4  0
 38 46  4  0
 46 47  4  0
 27 48  4  0
 48 49  4  0
 49 50  4  0
 50 51  4  0
 51 52  4  0
 52 53  4  0
 53 54  4  0
 54 55  4  0
 55 56  4  0
 56 57  4  0
 15 58  4  0
 13 59  4  0
 59 60  4  0
 60 61  4  0
 61 62  4  0
  6  1  4  0
 62  8  4  0
 61  4  4  0
 58 11  4  0
 62 12  4  0
 57 16  4  0
 56 19  4  0
 54 21  4  0
 52 23  4  0
 50 25  4  0
 33 28  4  0
 45 36  4  0
 47 30  4  0
 37 31  4  0
 45 40  4  0
  1 63  1  0
  2 64  1  0
  3 65  1  0
  6 66  1  0
  7 67  1  0
  9 68  1  0
 10 69  1  0
 14 70  1  0
 17 71  1  0
 18 72  1  0
 20 73  1  0
 22 74  1  0
 24 75  1  0
 26 76  1  0
 29 77  1  0
 33 78  1  0
 34 79  1  0
 35 80  1  0
 39 81  1  0
 41 82  1  0
 42 83  1  0
 43 84  1  0
 44 85  1  0
 46 86  1  0
 47 87  1  0
 48 88  1  0
 49 89  1  0
 51 90  1  0
 53 91  1  0
 55 92  1  0
 57 93  1  0
 58 94  1  0
 59 95  1  0
 60 96  1  0
M  END
