
     RDKit          3D

 96110  0  0  0  0  0  0  0  0999 V2000
  -13.3191    0.6846   -2.9891 C   0  0  0  0  0  0  0  0  0  0  0  0
  -12.0703    1.2971   -3.0638 C   0  0  0  0  0  0  0  0  0  0  0  0
  -11.0483    0.9475   -2.1690 C   0  0  0  0  0  0  0  0  0  0  0  0
  -11.2860   -0.0378   -1.1799 C   0  0  0  0  0  0  0  0  0  0  0  0
  -12.5539   -0.6527   -1.1118 C   0  0  0  0  0  0  0  0  0  0  0  0
  -13.5599   -0.2848   -2.0184 C   0  0  0  0  0  0  0  0  0  0  0  0
  -12.7812   -1.6214   -0.1362 C   0  0  0  0  0  0  0  0  0  0  0  0
  -11.7694   -1.9793    0.7608 C   0  0  0  0  0  0  0  0  0  0  0  0
  -10.4808   -1.3919    0.7328 C   0  0  0  0  0  0  0  0  0  0  0  0
  -10.2598   -0.4062   -0.2634 C   0  0  0  0  0  0  0  0  0  0  0  0
   -9.0070    0.2289   -0.3590 C   0  0  0  0  0  0  0  0  0  0  0  0
   -7.9875   -0.1188    0.5313 C   0  0  0  0  0  0  0  0  0  0  0  0
   -8.1513   -1.0959    1.5337 C   0  0  0  0  0  0  0  0  0  0  0  0
   -7.0885   -1.4386    2.4259 C   0  0  0  0  0  0  0  0  0  0  0  0
   -5.7553   -0.8151    2.3503 C   0  0  0  0  0  0  0  0  0  0  0  0
   -5.4067    0.2342    3.2089 C   0  0  0  0  0  0  0  0  0  0  0  0
   -4.1446    0.8283    3.1311 C   0  0  0  0  0  0  0  0  0  0  0  0
   -3.2005    0.3870    2.1914 C   0  0  0  0  0  0  0  0  0  0  0  0
   -1.9294    0.9774    2.0965 C   0  0  0  0  0  0  0  0  0  0  0  0
   -0.9860    0.5380    1.1522 C   0  0  0  0  0  0  0  0  0  0  0  0
    0.2852    1.1289    1.0553 C   0  0  0  0  0  0  0  0  0  0  0  0
    1.2278    0.6913    0.1095 C   0  0  0  0  0  0  0  0  0  0  0  0
    2.4984    1.2835    0.0131 C   0  0  0  0  0  0  0  0  0  0  0  0
    3.4405    0.8475   -0.9333 C   0  0  0  0  0  0  0  0  0  0  0  0
    4.7113    1.4406   -1.0297 C   0  0  0  0  0  0  0  0  0  0  0  0
    5.6532    1.0021   -1.9740 C   0  0  0  0  0  0  0  0  0  0  0  0
    6.9803    1.6356   -2.0614 C   0  0  0  0  0  0  0  0  0  0  0  0
    8.1005    1.1876   -1.2959 C   0  0  0  0  0  0  0  0  0  0  0  0
    7.9980    0.1010   -0.4044 C   0  0  0  0  0  0  0  0  0  0  0  0
    9.0776   -0.3563    0.3564 C   0  0  0  0  0  0  0  0  0  0  0  0
    8.9197   -1.4416    1.2298 C   0  0  0  0  0  0  0  0  0  0  0  0
    9.9882   -1.9074    1.9941 C   0  0  0  0  0  0  0  0  0  0  0  0
   11.2420   -1.2977    1.9026 C   0  0  0  0  0  0  0  0  0  0  0  0
   11.4163   -0.2004    1.0246 C   0  0  0  0  0  0  0  0  0  0  0  0
   12.6831    0.4136    0.9337 C   0  0  0  0  0  0  0  0  0  0  0  0
   13.7504   -0.0655    1.7085 C   0  0  0  0  0  0  0  0  0  0  0  0
   13.5720   -1.1452    2.5702 C   0  0  0  0  0  0  0  0  0  0  0  0
   12.3247   -1.7575    2.6667 C   0  0  0  0  0  0  0  0  0  0  0  0
   12.8483    1.4930    0.0681 C   0  0  0  0  0  0  0  0  0  0  0  0
   11.7760    1.9609   -0.6984 C   0  0  0  0  0  0  0  0  0  0  0  0
   10.4859    1.3789   -0.6427 C   0  0  0  0  0  0  0  0  0  0  0  0
   10.3281    0.2804    0.2411 C   0  0  0  0  0  0  0  0  0  0  0  0
    9.3595    1.8373   -1.4194 C   0  0  0  0  0  0  0  0  0  0  0  0
    9.4358    2.9269   -2.3228 C   0  0  0  0  0  0  0  0  0  0  0  0
    8.3428    3.3634   -3.0693 C   0  0  0  0  0  0  0  0  0  0  0  0
    7.1236    2.7212   -2.9384 C   0  0  0  0  0  0  0  0  0  0  0  0
    5.3034   -0.0449   -2.8348 C   0  0  0  0  0  0  0  0  0  0  0  0
    4.0443   -0.6443   -2.7507 C   0  0  0  0  0  0  0  0  0  0  0  0
    3.1035   -0.2084   -1.8049 C   0  0  0  0  0  0  0  0  0  0  0  0
    1.8335   -0.8007   -1.7075 C   0  0  0  0  0  0  0  0  0  0  0  0
    0.8913   -0.3635   -0.7609 C   0  0  0  0  0  0  0  0  0  0  0  0
   -0.3796   -0.9550   -0.6635 C   0  0  0  0  0  0  0  0  0  0  0  0
   -1.3220   -0.5175    0.2823 C   0  0  0  0  0  0  0  0  0  0  0  0
   -2.5925   -1.1097    0.3784 C   0  0  0  0  0  0  0  0  0  0  0  0
   -3.5358   -0.6711    1.3220 C   0  0  0  0  0  0  0  0  0  0  0  0
   -4.8075   -1.2621    1.4156 C   0  0  0  0  0  0  0  0  0  0  0  0
   -7.2964   -2.4090    3.4176 C   0  0  0  0  0  0  0  0  0  0  0  0
   -8.5221   -3.0413    3.5372 C   0  0  0  0  0  0  0  0  0  0  0  0
   -9.5569   -2.7110    2.6638 C   0  0  0  0  0  0  0  0  0  0  0  0
   -9.4149   -1.7396    1.6416 C   0  0  0  0  0  0  0  0  0  0  0  0
   -8.7859    1.2030   -1.3427 C   0  0  0  0  0  0  0  0  0  0  0  0
   -9.7934    1.5582   -2.2378 C   0  0  0  0  0  0  0  0  0  0  0  0
  -14.1043    0.9626   -3.6871 H   0  0  0  0  0  0  0  0  0  0  0  0
  -11.8992    2.0519   -3.8280 H   0  0  0  0  0  0  0  0  0  0  0  0
  -14.5406   -0.7532   -1.9741 H   0  0  0  0  0  0  0  0  0  0  0  0
  -13.7486   -2.1128   -0.0591 H   0  0  0  0  0  0  0  0  0  0  0  0
  -12.0211   -2.7418    1.4921 H   0  0  0  0  0  0  0  0  0  0  0  0
   -7.0321    0.3958    0.4357 H   0  0  0  0  0  0  0  0  0  0  0  0
   -6.1235    0.5997    3.9418 H   0  0  0  0  0  0  0  0  0  0  0  0
   -3.9065    1.6434    3.8109 H   0  0  0  0  0  0  0  0  0  0  0  0
   -1.6711    1.7939    2.7685 H   0  0  0  0  0  0  0  0  0  0  0  0
    0.5458    1.9446    1.7276 H   0  0  0  0  0  0  0  0  0  0  0  0
    2.7593    2.0988    0.6860 H   0  0  0  0  0  0  0  0  0  0  0  0
    4.9807    2.2550   -0.3583 H   0  0  0  0  0  0  0  0  0  0  0  0
    7.0435   -0.4125   -0.2938 H   0  0  0  0  0  0  0  0  0  0  0  0
    7.9557   -1.9378    1.3238 H   0  0  0  0  0  0  0  0  0  0  0  0
    9.8294   -2.7513    2.6614 H   0  0  0  0  0  0  0  0  0  0  0  0
   14.7308    0.4012    1.6453 H   0  0  0  0  0  0  0  0  0  0  0  0
   14.4045   -1.5089    3.1665 H   0  0  0  0  0  0  0  0  0  0  0  0
   12.2022   -2.5990    3.3447 H   0  0  0  0  0  0  0  0  0  0  0  0
   13.8133    1.9866   -0.0232 H   0  0  0  0  0  0  0  0  0  0  0  0
   11.9815    2.8055   -1.3495 H   0  0  0  0  0  0  0  0  0  0  0  0
   10.3656    3.4695   -2.4676 H   0  0  0  0  0  0  0  0  0  0  0  0
    8.4481    4.2037   -3.7501 H   0  0  0  0  0  0  0  0  0  0  0  0
    6.2734    3.0667   -3.5232 H   0  0  0  0  0  0  0  0  0  0  0  0
    6.0161   -0.4022   -3.5757 H   0  0  0  0  0  0  0  0  0  0  0  0
    3.8050   -1.4574   -3.4324 H   0  0  0  0  0  0  0  0  0  0  0  0
    1.5744   -1.6160   -2.3808 H   0  0  0  0  0  0  0  0  0  0  0  0
   -0.6404   -1.7703   -1.3361 H   0  0  0  0  0  0  0  0  0  0  0  0
   -2.8534   -1.9250   -0.2943 H   0  0  0  0  0  0  0  0  0  0  0  0
   -5.0739   -2.0800    0.7472 H   0  0  0  0  0  0  0  0  0  0  0  0
   -6.4907   -2.6755    4.0990 H   0  0  0  0  0  0  0  0  0  0  0  0
   -8.6769   -3.7932    4.3062 H   0  0  0  0  0  0  0  0  0  0  0  0
  -10.4943   -3.2413    2.8051 H   0  0  0  0  0  0  0  0  0  0  0  0
   -7.8190    1.6963   -1.4224 H   0  0  0  0  0  0  0  0  0  0  0  0
   -9.5864    2.3169   -2.9889 H   0  0  0  0  0  0  0  0  0  0  0  0
  1  2  4  0
  2  3  4  0
  3  4  4  0
  4  5  4  0
  5  6  4  0
  5  7  4  0
  7  8  4  0
  8  9  4  0
  9 10  4  0
 10 11  4  0
 11 12  4  0
 12 13  4  0
 13 14  4  0
 14 15  1  0
 15 16  4  0
 16 17  4  0
 17 18  4  0
 18 19  4  0
 19 20  4  0
 20 21  4  0
 21 22  4  0
 22 23  4  0
 23 24  4  0
 24 25  4  0
 25 26  4  0
 26 27  1  0
 27 28  4  0
 28 29  4  0
 29 30  4  0
 30 31  4  0
 31 32  4  0
 32 33  4  0
 33 34  4  0
 34 35  4  0
 35 36  4  0
 36 37  4  0
 37 38  4  0
 35 39  4  0
 39 40  4  0
 40 41  4  0
 41 42  4  0
 41 43  4  0
 43 44  4  0
 44 45  4  0
 45 46  4  0
 26 47  4  0
 47 48  4  0
 48 49  4  0
 49 50  4  0
 50 51  4  0
 51 52  4  0
 52 53  4  0
 53 54  4  0
 54 55  4  0
 55 56  4  0
 14 57  4  0
 57 58  4  0
 58 59  4  0
 59 60  4  0
 11 61  4  0
 61 62  4  0
  6  1  4  0
 60  9  4  0
 62  3  4  0
 10  4  4  0
 60 13  4  0
 56 15  4  0
 55 18  4  0
 53 20  4  0
 51 22  4  0
 49 24  4  0
 46 27  4  0
 43 28  4  0
 42 30  4  0
 38 33  4  0
 42 34  4  0
  1 63  1  0
  2 64  1  0
  6 65  1  0
  7 66  1  0
  8 67  1  0
 12 68  1  0
 16 69  1  0
 17 70  1  0
 19 71  1  0
 21 72  1  0
 23 73  1  0
 25 74  1  0
 29 75  1  0
 31 76  1  0
 32 77  1  0
 36 78  1  0
 37 79  1  0
 38 80  1  0
 39 81  1  0
 40 82  1  0
 44 83  1  0
 45 84  1  0
 46 85  1  0
 47 86  1  0
 48 87  1  0
 50 88  1  0
 52 89  1  0
 54 90  1  0
 56 91  1  0
 57 92  1  0
 58 93  1  0
 59 94  1  0
 61 95  1  0
 62 96  1  0
M  END
