
     RDKit          3D

 96110  0  0  0  0  0  0  0  0999 V2000
   15.1832   -1.9100   -2.2316 C   0  0  0  0  0  0  0  0  0  0  0  0
   15.4506   -0.9134   -1.2957 C   0  0  0  0  0  0  0  0  0  0  0  0
   14.4055   -0.1790   -0.7157 C   0  0  0  0  0  0  0  0  0  0  0  0
   13.0657   -0.4521   -1.0845 C   0  0  0  0  0  0  0  0  0  0  0  0
   12.8042   -1.4635   -2.0335 C   0  0  0  0  0  0  0  0  0  0  0  0
   13.8676   -2.1836   -2.5984 C   0  0  0  0  0  0  0  0  0  0  0  0
   11.4833   -1.7283   -2.3926 C   0  0  0  0  0  0  0  0  0  0  0  0
   10.4316   -1.0041   -1.8228 C   0  0  0  0  0  0  0  0  0  0  0  0
   10.6445    0.0182   -0.8683 C   0  0  0  0  0  0  0  0  0  0  0  0
   11.9924    0.2830   -0.5061 C   0  0  0  0  0  0  0  0  0  0  0  0
   12.2883    1.2874    0.4406 C   0  0  0  0  0  0  0  0  0  0  0  0
   11.2480    2.0186    1.0198 C   0  0  0  0  0  0  0  0  0  0  0  0
    9.9114    1.7810    0.6839 C   0  0  0  0  0  0  0  0  0  0  0  0
    8.9024    2.5416    1.2948 C   0  0  0  0  0  0  0  0  0  0  0  0
    7.5584    2.3363    0.9872 C   0  0  0  0  0  0  0  0  0  0  0  0
    7.1857    1.3652    0.0575 C   0  0  0  0  0  0  0  0  0  0  0  0
    5.7715    1.1419   -0.2785 C   0  0  0  0  0  0  0  0  0  0  0  0
    5.3179    1.2556   -1.5993 C   0  0  0  0  0  0  0  0  0  0  0  0
    3.9728    1.0472   -1.9174 C   0  0  0  0  0  0  0  0  0  0  0  0
    3.0432    0.7172   -0.9208 C   0  0  0  0  0  0  0  0  0  0  0  0
    1.6882    0.5056   -1.2237 C   0  0  0  0  0  0  0  0  0  0  0  0
    0.7576    0.1742   -0.2246 C   0  0  0  0  0  0  0  0  0  0  0  0
   -0.5981   -0.0372   -0.5268 C   0  0  0  0  0  0  0  0  0  0  0  0
   -1.5291   -0.3690    0.4717 C   0  0  0  0  0  0  0  0  0  0  0  0
   -2.8846   -0.5804    0.1687 C   0  0  0  0  0  0  0  0  0  0  0  0
   -3.8162   -0.9112    1.1669 C   0  0  0  0  0  0  0  0  0  0  0  0
   -5.1737   -1.1223    0.8642 C   0  0  0  0  0  0  0  0  0  0  0  0
   -6.1091   -1.4553    1.8586 C   0  0  0  0  0  0  0  0  0  0  0  0
   -7.5247   -1.6730    1.5230 C   0  0  0  0  0  0  0  0  0  0  0  0
   -8.1603   -2.8748    1.8362 C   0  0  0  0  0  0  0  0  0  0  0  0
   -9.5013   -3.0715    1.5108 C   0  0  0  0  0  0  0  0  0  0  0  0
  -10.2456   -2.0727    0.8646 C   0  0  0  0  0  0  0  0  0  0  0  0
  -11.5886   -2.3105    0.5559 C   0  0  0  0  0  0  0  0  0  0  0  0
  -12.3724   -1.3483   -0.0857 C   0  0  0  0  0  0  0  0  0  0  0  0
  -13.7162   -1.6128   -0.3834 C   0  0  0  0  0  0  0  0  0  0  0  0
  -14.5086   -0.6607   -1.0232 C   0  0  0  0  0  0  0  0  0  0  0  0
  -13.9755    0.5807   -1.3811 C   0  0  0  0  0  0  0  0  0  0  0  0
  -12.6192    0.8635   -1.0871 C   0  0  0  0  0  0  0  0  0  0  0  0
  -12.0823    2.1175   -1.4490 C   0  0  0  0  0  0  0  0  0  0  0  0
  -12.8929    3.0653   -2.0923 C   0  0  0  0  0  0  0  0  0  0  0  0
  -14.2261    2.7810   -2.3787 C   0  0  0  0  0  0  0  0  0  0  0  0
  -14.7642    1.5457   -2.0251 C   0  0  0  0  0  0  0  0  0  0  0  0
  -10.7463    2.3900   -1.1572 C   0  0  0  0  0  0  0  0  0  0  0  0
   -9.9483    1.4371   -0.5160 C   0  0  0  0  0  0  0  0  0  0  0  0
  -10.4421    0.1675   -0.1342 C   0  0  0  0  0  0  0  0  0  0  0  0
  -11.8040   -0.1040   -0.4341 C   0  0  0  0  0  0  0  0  0  0  0  0
   -9.6479   -0.8358    0.5269 C   0  0  0  0  0  0  0  0  0  0  0  0
   -8.2790   -0.6759    0.8755 C   0  0  0  0  0  0  0  0  0  0  0  0
   -5.6541   -1.5753    3.1784 C   0  0  0  0  0  0  0  0  0  0  0  0
   -4.3091   -1.3676    3.4968 C   0  0  0  0  0  0  0  0  0  0  0  0
   -3.3796   -1.0352    2.5010 C   0  0  0  0  0  0  0  0  0  0  0  0
   -2.0246   -0.8241    2.8042 C   0  0  0  0  0  0  0  0  0  0  0  0
   -1.0938   -0.4923    1.8053 C   0  0  0  0  0  0  0  0  0  0  0  0
    0.2619   -0.2810    2.1076 C   0  0  0  0  0  0  0  0  0  0  0  0
    1.1930    0.0509    1.1090 C   0  0  0  0  0  0  0  0  0  0  0  0
    2.5486    0.2629    1.4117 C   0  0  0  0  0  0  0  0  0  0  0  0
    3.4796    0.5959    0.4136 C   0  0  0  0  0  0  0  0  0  0  0  0
    4.8366    0.8102    0.7164 C   0  0  0  0  0  0  0  0  0  0  0  0
    8.2037    0.6060   -0.5498 C   0  0  0  0  0  0  0  0  0  0  0  0
    9.5846    0.7823   -0.2631 C   0  0  0  0  0  0  0  0  0  0  0  0
   13.6196    1.5458    0.7950 C   0  0  0  0  0  0  0  0  0  0  0  0
   14.6658    0.8220    0.2243 C   0  0  0  0  0  0  0  0  0  0  0  0
   16.0000   -2.4734   -2.6748 H   0  0  0  0  0  0  0  0  0  0  0  0
   16.4839   -0.7136   -1.0211 H   0  0  0  0  0  0  0  0  0  0  0  0
   13.6768   -2.9653   -3.3302 H   0  0  0  0  0  0  0  0  0  0  0  0
   11.2522   -2.5028   -3.1206 H   0  0  0  0  0  0  0  0  0  0  0  0
    9.4288   -1.2650   -2.1486 H   0  0  0  0  0  0  0  0  0  0  0  0
   11.4851    2.7912    1.7499 H   0  0  0  0  0  0  0  0  0  0  0  0
    9.1548    3.3113    2.0216 H   0  0  0  0  0  0  0  0  0  0  0  0
    6.8037    2.9519    1.4723 H   0  0  0  0  0  0  0  0  0  0  0  0
    6.0117    1.5218   -2.3945 H   0  0  0  0  0  0  0  0  0  0  0  0
    3.6582    1.1488   -2.9537 H   0  0  0  0  0  0  0  0  0  0  0  0
    1.3524    0.6007   -2.2548 H   0  0  0  0  0  0  0  0  0  0  0  0
   -0.9345    0.0582   -1.5578 H   0  0  0  0  0  0  0  0  0  0  0  0
   -3.2208   -0.4860   -0.8624 H   0  0  0  0  0  0  0  0  0  0  0  0
   -5.5094   -1.0376   -0.1686 H   0  0  0  0  0  0  0  0  0  0  0  0
   -7.6117   -3.6758    2.3272 H   0  0  0  0  0  0  0  0  0  0  0  0
   -9.9614   -4.0238    1.7677 H   0  0  0  0  0  0  0  0  0  0  0  0
  -12.0354   -3.2675    0.8215 H   0  0  0  0  0  0  0  0  0  0  0  0
  -14.1622   -2.5692   -0.1182 H   0  0  0  0  0  0  0  0  0  0  0  0
  -15.5474   -0.8998   -1.2390 H   0  0  0  0  0  0  0  0  0  0  0  0
  -12.4889    4.0348   -2.3756 H   0  0  0  0  0  0  0  0  0  0  0  0
  -14.8455    3.5216   -2.8775 H   0  0  0  0  0  0  0  0  0  0  0  0
  -15.8070    1.3407   -2.2566 H   0  0  0  0  0  0  0  0  0  0  0  0
  -10.3061    3.3481   -1.4245 H   0  0  0  0  0  0  0  0  0  0  0  0
   -8.9172    1.7179   -0.3203 H   0  0  0  0  0  0  0  0  0  0  0  0
   -7.7712    0.2590    0.6515 H   0  0  0  0  0  0  0  0  0  0  0  0
   -6.3516   -1.8218    3.9768 H   0  0  0  0  0  0  0  0  0  0  0  0
   -3.9950   -1.4661    4.5336 H   0  0  0  0  0  0  0  0  0  0  0  0
   -1.6889   -0.9202    3.8352 H   0  0  0  0  0  0  0  0  0  0  0  0
    0.5982   -0.3767    3.1386 H   0  0  0  0  0  0  0  0  0  0  0  0
    2.8854    0.1674    2.4426 H   0  0  0  0  0  0  0  0  0  0  0  0
    5.1768    0.7066    1.7459 H   0  0  0  0  0  0  0  0  0  0  0  0
    7.8930   -0.1547   -1.2618 H   0  0  0  0  0  0  0  0  0  0  0  0
   13.8570    2.3180    1.5238 H   0  0  0  0  0  0  0  0  0  0  0  0
   15.6867    1.0490    0.5227 H   0  0  0  0  0  0  0  0  0  0  0  0
  1  2  4  0
  2  3  4  0
  3  4  4  0
  4  5  4  0
  5  6  4  0
  5  7  4  0
  7  8  4  0
  8  9  4  0
  9 10  4  0
 10 11  4  0
 11 12  4  0
 12 13  4  0
 13 14  4  0
 14 15  4  0
 15 16  4  0
 16 17  1  0
 17 18  4  0
 18 19  4  0
 19 20  4  0
 20 21  4  0
 21 22  4  0
 22 23  4  0
 23 24  4  0
 24 25  4  0
 25 26  4  0
 26 27  4  0
 27 28  4  0
 28 29  1  0
 29 30  4  0
 30 31  4  0
 31 32  4  0
 32 33  4  0
 33 34  4  0
 34 35  4  0
 35 36  4  0
 36 37  4  0
 37 38  4  0
 38 39  4  0
 39 40  4  0
 40 41  4  0
 41 42  4  0
 39 43  4  0
 43 44  4  0
 44 45  4  0
 45 46  4  0
 45 47  4  0
 47 48  4  0
 28 49  4  0
 49 50  4  0
 50 51  4  0
 51 52  4  0
 52 53  4  0
 53 54  4  0
 54 55  4  0
 55 56  4  0
 56 57  4  0
 57 58  4  0
 16 59  4  0
 59 60  4  0
 11 61  4  0
 61 62  4  0
  6  1  4  0
 60  9  4  0
 62  3  4  0
 10  4  4  0
 60 13  4  0
 58 17  4  0
 57 20  4  0
 55 22  4  0
 53 24  4  0
 51 26  4  0
 48 29  4  0
 47 32  4  0
 46 34  4  0
 42 37  4  0
 46 38  4  0
  1 63  1  0
  2 64  1  0
  6 65  1  0
  7 66  1  0
  8 67  1  0
 12 68  1  0
 14 69  1  0
 15 70  1  0
 18 71  1  0
 19 72  1  0
 21 73  1  0
 23 74  1  0
 25 75  1  0
 27 76  1  0
 30 77  1  0
 31 78  1  0
 33 79  1  0
 35 80  1  0
 36 81  1  0
 40 82  1  0
 41 83  1  0
 42 84  1  0
 43 85  1  0
 44 86  1  0
 48 87  1  0
 49 88  1  0
 50 89  1  0
 52 90  1  0
 54 91  1  0
 56 92  1  0
 58 93  1  0
 59 94  1  0
 61 95  1  0
 62 96  1  0
M  END
