
     RDKit          3D

 96110  0  0  0  0  0  0  0  0999 V2000
    9.1619    4.4630   -0.2881 C   0  0  0  0  0  0  0  0  0  0  0  0
    7.8388    4.2990   -0.6418 C   0  0  0  0  0  0  0  0  0  0  0  0
    7.3064    3.0138   -0.7031 C   0  0  0  0  0  0  0  0  0  0  0  0
    8.0713    1.8508   -0.4150 C   0  0  0  0  0  0  0  0  0  0  0  0
    9.4327    2.0120   -0.0498 C   0  0  0  0  0  0  0  0  0  0  0  0
    9.9393    3.3405    0.0012 C   0  0  0  0  0  0  0  0  0  0  0  0
   10.2318    0.8552    0.2487 C   0  0  0  0  0  0  0  0  0  0  0  0
    9.6580   -0.4423    0.1783 C   0  0  0  0  0  0  0  0  0  0  0  0
   10.4494   -1.5972    0.4758 C   0  0  0  0  0  0  0  0  0  0  0  0
    9.8921   -2.8957    0.4108 C   0  0  0  0  0  0  0  0  0  0  0  0
   10.6788   -4.0198    0.7050 C   0  0  0  0  0  0  0  0  0  0  0  0
   12.0152   -3.8746    1.0640 C   0  0  0  0  0  0  0  0  0  0  0  0
   12.5768   -2.6034    1.1321 C   0  0  0  0  0  0  0  0  0  0  0  0
   11.8073   -1.4662    0.8418 C   0  0  0  0  0  0  0  0  0  0  0  0
   12.3672   -0.1959    0.9098 C   0  0  0  0  0  0  0  0  0  0  0  0
   11.5967    0.9317    0.6202 C   0  0  0  0  0  0  0  0  0  0  0  0
    8.5564   -3.0418    0.0524 C   0  0  0  0  0  0  0  0  0  0  0  0
    7.7813   -1.9204   -0.2386 C   0  0  0  0  0  0  0  0  0  0  0  0
    8.2999   -0.6047   -0.1861 C   0  0  0  0  0  0  0  0  0  0  0  0
    7.5077    0.5422   -0.4838 C   0  0  0  0  0  0  0  0  0  0  0  0
    6.0856    0.3730   -0.8670 C   0  0  0  0  0  0  0  0  0  0  0  0
    5.7214    0.2072   -2.2095 C   0  0  0  0  0  0  0  0  0  0  0  0
    4.3799    0.0591   -2.5689 C   0  0  0  0  0  0  0  0  0  0  0  0
    3.3702    0.0744   -1.5944 C   0  0  0  0  0  0  0  0  0  0  0  0
    2.0163   -0.0671   -1.9401 C   0  0  0  0  0  0  0  0  0  0  0  0
    1.0050   -0.0489   -0.9645 C   0  0  0  0  0  0  0  0  0  0  0  0
   -0.3500   -0.1879   -1.3095 C   0  0  0  0  0  0  0  0  0  0  0  0
   -1.3613   -0.1670   -0.3341 C   0  0  0  0  0  0  0  0  0  0  0  0
   -2.7161   -0.3044   -0.6801 C   0  0  0  0  0  0  0  0  0  0  0  0
   -3.7268   -0.2831    0.2949 C   0  0  0  0  0  0  0  0  0  0  0  0
   -5.0814   -0.4216   -0.0519 C   0  0  0  0  0  0  0  0  0  0  0  0
   -6.0910   -0.4013    0.9246 C   0  0  0  0  0  0  0  0  0  0  0  0
   -7.5151   -0.5517    0.5416 C   0  0  0  0  0  0  0  0  0  0  0  0
   -8.2889    0.6058    0.2375 C   0  0  0  0  0  0  0  0  0  0  0  0
   -7.7498    1.9136    0.2842 C   0  0  0  0  0  0  0  0  0  0  0  0
   -8.5070    3.0453   -0.0126 C   0  0  0  0  0  0  0  0  0  0  0  0
   -9.8446    2.9179   -0.3710 C   0  0  0  0  0  0  0  0  0  0  0  0
  -10.4222    1.6281   -0.4304 C   0  0  0  0  0  0  0  0  0  0  0  0
  -11.7817    1.5165   -0.7966 C   0  0  0  0  0  0  0  0  0  0  0  0
  -12.5331    2.6640   -1.0923 C   0  0  0  0  0  0  0  0  0  0  0  0
  -11.9516    3.9264   -1.0294 C   0  0  0  0  0  0  0  0  0  0  0  0
  -10.6133    4.0525   -0.6706 C   0  0  0  0  0  0  0  0  0  0  0  0
  -12.3613    0.2548   -0.8591 C   0  0  0  0  0  0  0  0  0  0  0  0
  -11.6085   -0.8831   -0.5637 C   0  0  0  0  0  0  0  0  0  0  0  0
  -10.2429   -0.8259   -0.1915 C   0  0  0  0  0  0  0  0  0  0  0  0
   -9.6491    0.4627   -0.1270 C   0  0  0  0  0  0  0  0  0  0  0  0
   -9.4623   -1.9932    0.1134 C   0  0  0  0  0  0  0  0  0  0  0  0
   -9.9896   -3.3138    0.0681 C   0  0  0  0  0  0  0  0  0  0  0  0
   -9.2300   -4.4465    0.3640 C   0  0  0  0  0  0  0  0  0  0  0  0
   -7.9054   -4.3013    0.7195 C   0  0  0  0  0  0  0  0  0  0  0  0
   -7.3532   -3.0244    0.7753 C   0  0  0  0  0  0  0  0  0  0  0  0
   -8.0991   -1.8514    0.4795 C   0  0  0  0  0  0  0  0  0  0  0  0
   -5.7255   -0.2371    2.2670 C   0  0  0  0  0  0  0  0  0  0  0  0
   -4.3831   -0.0980    2.6257 C   0  0  0  0  0  0  0  0  0  0  0  0
   -3.3742   -0.1199    1.6505 C   0  0  0  0  0  0  0  0  0  0  0  0
   -2.0199    0.0170    1.9957 C   0  0  0  0  0  0  0  0  0  0  0  0
   -1.0091   -0.0045    1.0198 C   0  0  0  0  0  0  0  0  0  0  0  0
    0.3457    0.1332    1.3650 C   0  0  0  0  0  0  0  0  0  0  0  0
    1.3568    0.1135    0.3896 C   0  0  0  0  0  0  0  0  0  0  0  0
    2.7110    0.2540    0.7362 C   0  0  0  0  0  0  0  0  0  0  0  0
    3.7219    0.2376   -0.2385 C   0  0  0  0  0  0  0  0  0  0  0  0
    5.0755    0.3834    0.1092 C   0  0  0  0  0  0  0  0  0  0  0  0
    9.5968    5.4571   -0.2345 H   0  0  0  0  0  0  0  0  0  0  0  0
    7.2169    5.1599   -0.8704 H   0  0  0  0  0  0  0  0  0  0  0  0
    6.2578    2.9318   -0.9859 H   0  0  0  0  0  0  0  0  0  0  0  0
   10.9723    3.5360    0.2731 H   0  0  0  0  0  0  0  0  0  0  0  0
   10.2532   -5.0197    0.6560 H   0  0  0  0  0  0  0  0  0  0  0  0
   12.6176   -4.7502    1.2903 H   0  0  0  0  0  0  0  0  0  0  0  0
   13.6227   -2.5054    1.4143 H   0  0  0  0  0  0  0  0  0  0  0  0
   13.4100   -0.0621    1.1886 H   0  0  0  0  0  0  0  0  0  0  0  0
   12.1063    1.8877    0.6958 H   0  0  0  0  0  0  0  0  0  0  0  0
    8.0985   -4.0265   -0.0061 H   0  0  0  0  0  0  0  0  0  0  0  0
    6.7424   -2.0979   -0.5123 H   0  0  0  0  0  0  0  0  0  0  0  0
    6.4865    0.1959   -2.9836 H   0  0  0  0  0  0  0  0  0  0  0  0
    4.1303   -0.0659   -3.6203 H   0  0  0  0  0  0  0  0  0  0  0  0
    1.7455   -0.1912   -2.9871 H   0  0  0  0  0  0  0  0  0  0  0  0
   -0.6229   -0.3137   -2.3559 H   0  0  0  0  0  0  0  0  0  0  0  0
   -2.9898   -0.4300   -1.7264 H   0  0  0  0  0  0  0  0  0  0  0  0
   -5.3630   -0.5489   -1.0963 H   0  0  0  0  0  0  0  0  0  0  0  0
   -6.7085    2.0763    0.5580 H   0  0  0  0  0  0  0  0  0  0  0  0
   -8.0340    4.0230    0.0415 H   0  0  0  0  0  0  0  0  0  0  0  0
  -13.5804    2.5812   -1.3745 H   0  0  0  0  0  0  0  0  0  0  0  0
  -12.5400    4.8102   -1.2597 H   0  0  0  0  0  0  0  0  0  0  0  0
  -10.1720    5.0457   -0.6258 H   0  0  0  0  0  0  0  0  0  0  0  0
  -13.4058    0.1358   -1.1379 H   0  0  0  0  0  0  0  0  0  0  0  0
  -12.1326   -1.8315   -0.6349 H   0  0  0  0  0  0  0  0  0  0  0  0
  -11.0250   -3.4946   -0.2046 H   0  0  0  0  0  0  0  0  0  0  0  0
   -9.6805   -5.4338    0.3144 H   0  0  0  0  0  0  0  0  0  0  0  0
   -7.2968   -5.1700    0.9536 H   0  0  0  0  0  0  0  0  0  0  0  0
   -6.3042   -2.9572    1.0601 H   0  0  0  0  0  0  0  0  0  0  0  0
   -6.4905   -0.2181    3.0410 H   0  0  0  0  0  0  0  0  0  0  0  0
   -4.1323    0.0277    3.6766 H   0  0  0  0  0  0  0  0  0  0  0  0
   -1.7483    0.1418    3.0423 H   0  0  0  0  0  0  0  0  0  0  0  0
    0.6189    0.2597    2.4112 H   0  0  0  0  0  0  0  0  0  0  0  0
    2.9840    0.3805    1.7826 H   0  0  0  0  0  0  0  0  0  0  0  0
    5.3559    0.5121    1.1538 H   0  0  0  0  0  0  0  0  0  0  0  0
  1  2  4  0
  2  3  4  0
  3  4  4  0
  4  5  4  0
  5  6  4  0
  5  7  4  0
  7  8  4  0
  8  9  4  0
  9 10  4  0
 10 11  4  0
 11 12  4  0
 12 13  4  0
 13 14  4  0
 14 15  4  0
 15 16  4  0
 10 17  4  0
 17 18  4  0
 18 19  4  0
 19 20  4  0
 20 21  1  0
 21 22  4  0
 22 23  4  0
 23 24  4  0
 24 25  4  0
 25 26  4  0
 26 27  4  0
 27 28  4  0
 28 29  4  0
 29 30  4  0
 30 31  4  0
 31 32  4  0
 32 33  1  0
 33 34  4  0
 34 35  4  0
 35 36  4  0
 36 37  4  0
 37 38  4  0
 38 39  4  0
 39 40  4  0
 40 41  4  0
 41 42  4  0
 39 43  4  0
 43 44  4  0
 44 45  4  0
 45 46  4  0
 45 47  4  0
 47 48  4  0
 48 49  4  0
 49 50  4  0
 50 51  4  0
 51 52  4  0
 32 53  4  0
 53 54  4  0
 54 55  4  0
 55 56  4  0
 56 57  4  0
 57 58  4  0
 58 59  4  0
 59 60  4  0
 60 61  4  0
 61 62  4  0
  6  1  4  0
 16  7  4  0
 62 21  4  0
 20  4  4  0
 61 24  4  0
 19  8  4  0
 59 26  4  0
 14  9  4  0
 57 28  4  0
 55 30  4  0
 52 33  4  0
 46 34  4  0
 52 47  4  0
 42 37  4  0
 46 38  4  0
  1 63  1  0
  2 64  1  0
  3 65  1  0
  6 66  1  0
 11 67  1  0
 12 68  1  0
 13 69  1  0
 15 70  1  0
 16 71  1  0
 17 72  1  0
 18 73  1  0
 22 74  1  0
 23 75  1  0
 25 76  1  0
 27 77  1  0
 29 78  1  0
 31 79  1  0
 35 80  1  0
 36 81  1  0
 40 82  1  0
 41 83  1  0
 42 84  1  0
 43 85  1  0
 44 86  1  0
 48 87  1  0
 49 88  1  0
 50 89  1  0
 51 90  1  0
 53 91  1  0
 54 92  1  0
 56 93  1  0
 58 94  1  0
 60 95  1  0
 62 96  1  0
M  END
