
     RDKit          3D

 96110  0  0  0  0  0  0  0  0999 V2000
   13.4021    3.3448    1.6184 C   0  0  0  0  0  0  0  0  0  0  0  0
   14.2003    2.4620    0.9091 C   0  0  0  0  0  0  0  0  0  0  0  0
   13.6424    1.2991    0.3694 C   0  0  0  0  0  0  0  0  0  0  0  0
   12.2680    0.9753    0.5176 C   0  0  0  0  0  0  0  0  0  0  0  0
   11.4779    1.8961    1.2464 C   0  0  0  0  0  0  0  0  0  0  0  0
   12.0495    3.0623    1.7853 C   0  0  0  0  0  0  0  0  0  0  0  0
   10.1153    1.6488    1.4353 C   0  0  0  0  0  0  0  0  0  0  0  0
    9.5003    0.5045    0.9193 C   0  0  0  0  0  0  0  0  0  0  0  0
    8.1334    0.2880    1.1267 C   0  0  0  0  0  0  0  0  0  0  0  0
    7.4778   -0.8480    0.6250 C   0  0  0  0  0  0  0  0  0  0  0  0
    6.0377   -0.9891    0.8945 C   0  0  0  0  0  0  0  0  0  0  0  0
    5.5857   -1.6969    2.0145 C   0  0  0  0  0  0  0  0  0  0  0  0
    4.2184   -1.8236    2.2719 C   0  0  0  0  0  0  0  0  0  0  0  0
    3.2702   -1.2421    1.4164 C   0  0  0  0  0  0  0  0  0  0  0  0
    1.8922   -1.3590    1.6627 C   0  0  0  0  0  0  0  0  0  0  0  0
    0.9427   -0.7748    0.8073 C   0  0  0  0  0  0  0  0  0  0  0  0
   -0.4357   -0.8906    1.0542 C   0  0  0  0  0  0  0  0  0  0  0  0
   -1.3858   -0.3059    0.2001 C   0  0  0  0  0  0  0  0  0  0  0  0
   -2.7638   -0.4218    0.4487 C   0  0  0  0  0  0  0  0  0  0  0  0
   -3.7141    0.1611   -0.4056 C   0  0  0  0  0  0  0  0  0  0  0  0
   -5.0925    0.0433   -0.1568 C   0  0  0  0  0  0  0  0  0  0  0  0
   -6.0422    0.6200   -1.0148 C   0  0  0  0  0  0  0  0  0  0  0  0
   -7.4818    0.4857   -0.7399 C   0  0  0  0  0  0  0  0  0  0  0  0
   -8.1248    1.5360   -0.0653 C   0  0  0  0  0  0  0  0  0  0  0  0
   -9.4893    1.4912    0.2421 C   0  0  0  0  0  0  0  0  0  0  0  0
  -10.0915    2.5579    0.9151 C   0  0  0  0  0  0  0  0  0  0  0  0
  -11.4512    2.5459    1.2376 C   0  0  0  0  0  0  0  0  0  0  0  0
  -12.0099    3.6444    1.9145 C   0  0  0  0  0  0  0  0  0  0  0  0
  -13.3596    3.6710    2.2530 C   0  0  0  0  0  0  0  0  0  0  0  0
  -14.1673    2.5963    1.9179 C   0  0  0  0  0  0  0  0  0  0  0  0
  -13.6220    1.4987    1.2449 C   0  0  0  0  0  0  0  0  0  0  0  0
  -12.2511    1.4338    0.8819 C   0  0  0  0  0  0  0  0  0  0  0  0
  -11.6427    0.3279    0.1887 C   0  0  0  0  0  0  0  0  0  0  0  0
  -10.2563    0.3691   -0.1268 C   0  0  0  0  0  0  0  0  0  0  0  0
   -9.6189   -0.7054   -0.8132 C   0  0  0  0  0  0  0  0  0  0  0  0
   -8.2327   -0.6539   -1.1248 C   0  0  0  0  0  0  0  0  0  0  0  0
   -7.6623   -1.7493   -1.8127 C   0  0  0  0  0  0  0  0  0  0  0  0
   -8.4199   -2.8596   -2.1776 C   0  0  0  0  0  0  0  0  0  0  0  0
   -9.7724   -2.9031   -1.8663 C   0  0  0  0  0  0  0  0  0  0  0  0
  -10.3794   -1.8380   -1.1896 C   0  0  0  0  0  0  0  0  0  0  0  0
  -11.7379   -1.8845   -0.8820 C   0  0  0  0  0  0  0  0  0  0  0  0
  -12.3523   -0.8263   -0.2094 C   0  0  0  0  0  0  0  0  0  0  0  0
   -5.5918    1.3318   -2.1328 C   0  0  0  0  0  0  0  0  0  0  0  0
   -4.2249    1.4593   -2.3919 C   0  0  0  0  0  0  0  0  0  0  0  0
   -3.2753    0.8785   -1.5374 C   0  0  0  0  0  0  0  0  0  0  0  0
   -1.8974    0.9955   -1.7847 C   0  0  0  0  0  0  0  0  0  0  0  0
   -0.9471    0.4117   -0.9296 C   0  0  0  0  0  0  0  0  0  0  0  0
    0.4314    0.5273   -1.1765 C   0  0  0  0  0  0  0  0  0  0  0  0
    1.3818   -0.0571   -0.3221 C   0  0  0  0  0  0  0  0  0  0  0  0
    2.7604    0.0591   -0.5694 C   0  0  0  0  0  0  0  0  0  0  0  0
    3.7104   -0.5238    0.2857 C   0  0  0  0  0  0  0  0  0  0  0  0
    5.0895   -0.4059    0.0392 C   0  0  0  0  0  0  0  0  0  0  0  0
    8.2175   -1.8054   -0.1142 C   0  0  0  0  0  0  0  0  0  0  0  0
    9.6070   -1.5909   -0.3268 C   0  0  0  0  0  0  0  0  0  0  0  0
   10.3573   -2.5393   -1.0619 C   0  0  0  0  0  0  0  0  0  0  0  0
    9.7370   -3.6831   -1.5789 C   0  0  0  0  0  0  0  0  0  0  0  0
    8.3802   -3.8993   -1.3778 C   0  0  0  0  0  0  0  0  0  0  0  0
    7.6320   -2.9724   -0.6558 C   0  0  0  0  0  0  0  0  0  0  0  0
   11.7189   -2.3254   -1.2679 C   0  0  0  0  0  0  0  0  0  0  0  0
   12.3461   -1.1870   -0.7578 C   0  0  0  0  0  0  0  0  0  0  0  0
   11.6467   -0.2081   -0.0185 C   0  0  0  0  0  0  0  0  0  0  0  0
   10.2574   -0.4324    0.1895 C   0  0  0  0  0  0  0  0  0  0  0  0
   13.8275    4.2506    2.0414 H   0  0  0  0  0  0  0  0  0  0  0  0
   15.2579    2.6714    0.7715 H   0  0  0  0  0  0  0  0  0  0  0  0
   14.3140    0.6431   -0.1769 H   0  0  0  0  0  0  0  0  0  0  0  0
   11.4380    3.7669    2.3457 H   0  0  0  0  0  0  0  0  0  0  0  0
    9.5179    2.3649    1.9981 H   0  0  0  0  0  0  0  0  0  0  0  0
    7.5537    1.0165    1.6937 H   0  0  0  0  0  0  0  0  0  0  0  0
    6.3012   -2.1565    2.6938 H   0  0  0  0  0  0  0  0  0  0  0  0
    3.9001   -2.3812    3.1499 H   0  0  0  0  0  0  0  0  0  0  0  0
    1.5534   -1.9133    2.5362 H   0  0  0  0  0  0  0  0  0  0  0  0
   -0.7753   -1.4461    1.9267 H   0  0  0  0  0  0  0  0  0  0  0  0
   -3.1043   -0.9763    1.3217 H   0  0  0  0  0  0  0  0  0  0  0  0
   -5.4389   -0.5089    0.7158 H   0  0  0  0  0  0  0  0  0  0  0  0
   -7.5365    2.4060    0.2264 H   0  0  0  0  0  0  0  0  0  0  0  0
   -9.4858    3.4192    1.1945 H   0  0  0  0  0  0  0  0  0  0  0  0
  -11.3902    4.4971    2.1854 H   0  0  0  0  0  0  0  0  0  0  0  0
  -13.7751    4.5280    2.7755 H   0  0  0  0  0  0  0  0  0  0  0  0
  -15.2229    2.6049    2.1765 H   0  0  0  0  0  0  0  0  0  0  0  0
  -14.3006    0.6848    1.0069 H   0  0  0  0  0  0  0  0  0  0  0  0
   -6.6062   -1.7487   -2.0769 H   0  0  0  0  0  0  0  0  0  0  0  0
   -7.9524   -3.6871   -2.7044 H   0  0  0  0  0  0  0  0  0  0  0  0
  -10.3513   -3.7765   -2.1582 H   0  0  0  0  0  0  0  0  0  0  0  0
  -12.3405   -2.7459   -1.1620 H   0  0  0  0  0  0  0  0  0  0  0  0
  -13.4135   -0.9302   -0.0033 H   0  0  0  0  0  0  0  0  0  0  0  0
   -6.3087    1.7887   -2.8125 H   0  0  0  0  0  0  0  0  0  0  0  0
   -3.9082    2.0167   -3.2706 H   0  0  0  0  0  0  0  0  0  0  0  0
   -1.5594    1.5500   -2.6584 H   0  0  0  0  0  0  0  0  0  0  0  0
    0.7708    1.0821   -2.0496 H   0  0  0  0  0  0  0  0  0  0  0  0
    3.1006    0.6136   -1.4424 H   0  0  0  0  0  0  0  0  0  0  0  0
    5.4375    0.1465   -0.8327 H   0  0  0  0  0  0  0  0  0  0  0  0
   10.3079   -4.4158   -2.1450 H   0  0  0  0  0  0  0  0  0  0  0  0
    7.9021   -4.7874   -1.7821 H   0  0  0  0  0  0  0  0  0  0  0  0
    6.5709   -3.1739   -0.5199 H   0  0  0  0  0  0  0  0  0  0  0  0
   12.3139   -3.0422   -1.8299 H   0  0  0  0  0  0  0  0  0  0  0  0
   13.4089   -1.0855   -0.9567 H   0  0  0  0  0  0  0  0  0  0  0  0
  1  2  4  0
  2  3  4  0
  3  4  4  0
  4  5  4  0
  5  6  4  0
  5  7  4  0
  7  8  4  0
  8  9  4  0
  9 10  4  0
 10 11  1  0
 11 12  4  0
 12 13  4  0
 13 14  4  0
 14 15  4  0
 15 16  4  0
 16 17  4  0
 17 18  4  0
 18 19  4  0
 19 20  4  0
 20 21  4  0
 21 22  4  0
 22 23  1  0
 23 24  4  0
 24 25  4  0
 25 26  4  0
 26 27  4  0
 27 28  4  0
 28 29  4  0
 29 30  4  0
 30 31  4  0
 31 32  4  0
 32 33  4  0
 33 34  4  0
 34 35  4  0
 35 36  4  0
 36 37  4  0
 37 38  4  0
 38 39  4  0
 39 40  4  0
 40 41  4  0
 41 42  4  0
 22 43  4  0
 43 44  4  0
 44 45  4  0
 45 46  4  0
 46 47  4  0
 47 48  4  0
 48 49  4  0
 49 50  4  0
 50 51  4  0
 51 52  4  0
 10 53  4  0
 53 54  4  0
 54 55  4  0
 55 56  4  0
 56 57  4  0
 57 58  4  0
 55 59  4  0
 59 60  4  0
 60 61  4  0
 61 62  4  0
  6  1  4  0
 62  8  4  0
 61  4  4  0
 52 11  4  0
 58 53  4  0
 51 14  4  0
 62 54  4  0
 49 16  4  0
 47 18  4  0
 45 20  4  0
 36 23  4  0
 34 25  4  0
 40 35  4  0
 32 27  4  0
 42 33  4  0
  1 63  1  0
  2 64  1  0
  3 65  1  0
  6 66  1  0
  7 67  1  0
  9 68  1  0
 12 69  1  0
 13 70  1  0
 15 71  1  0
 17 72  1  0
 19 73  1  0
 21 74  1  0
 24 75  1  0
 26 76  1  0
 28 77  1  0
 29 78  1  0
 30 79  1  0
 31 80  1  0
 37 81  1  0
 38 82  1  0
 39 83  1  0
 41 84  1  0
 42 85  1  0
 43 86  1  0
 44 87  1  0
 46 88  1  0
 48 89  1  0
 50 90  1  0
 52 91  1  0
 56 92  1  0
 57 93  1  0
 58 94  1  0
 59 95  1  0
 60 96  1  0
M  END
