
     RDKit          3D

 68 76  0  0  0  0  0  0  0  0999 V2000
   10.3384    0.6076    1.1381 C   0  0  0  0  0  0  0  0  0  0  0  0
    9.0520    1.0860    1.3462 C   0  0  0  0  0  0  0  0  0  0  0  0
    8.0556    0.8379    0.3994 C   0  0  0  0  0  0  0  0  0  0  0  0
    8.3171    0.1043   -0.7822 C   0  0  0  0  0  0  0  0  0  0  0  0
    9.6373   -0.3765   -0.9779 C   0  0  0  0  0  0  0  0  0  0  0  0
   10.6284   -0.1184   -0.0160 C   0  0  0  0  0  0  0  0  0  0  0  0
    9.9508   -1.1091   -2.1322 C   0  0  0  0  0  0  0  0  0  0  0  0
    8.9826   -1.3747   -3.0960 C   0  0  0  0  0  0  0  0  0  0  0  0
    7.6842   -0.9092   -2.9169 C   0  0  0  0  0  0  0  0  0  0  0  0
    7.3302   -0.1707   -1.7727 C   0  0  0  0  0  0  0  0  0  0  0  0
    5.9384    0.2898   -1.6486 C   0  0  0  0  0  0  0  0  0  0  0  0
    5.5451    1.5254   -2.1757 C   0  0  0  0  0  0  0  0  0  0  0  0
    4.2222    1.9594   -2.0608 C   0  0  0  0  0  0  0  0  0  0  0  0
    3.2603    1.1659   -1.4173 C   0  0  0  0  0  0  0  0  0  0  0  0
    1.9262    1.5878   -1.2945 C   0  0  0  0  0  0  0  0  0  0  0  0
    0.9622    0.7931   -0.6509 C   0  0  0  0  0  0  0  0  0  0  0  0
   -0.3732    1.2136   -0.5288 C   0  0  0  0  0  0  0  0  0  0  0  0
   -1.3375    0.4188    0.1143 C   0  0  0  0  0  0  0  0  0  0  0  0
   -2.6732    0.8389    0.2354 C   0  0  0  0  0  0  0  0  0  0  0  0
   -3.6369    0.0443    0.8790 C   0  0  0  0  0  0  0  0  0  0  0  0
   -4.9735    0.4643    1.0003 C   0  0  0  0  0  0  0  0  0  0  0  0
   -5.9350   -0.3321    1.6420 C   0  0  0  0  0  0  0  0  0  0  0  0
   -7.3290    0.1237    1.7627 C   0  0  0  0  0  0  0  0  0  0  0  0
   -7.6812    0.8889    2.8899 C   0  0  0  0  0  0  0  0  0  0  0  0
   -8.9819    1.3494    3.0659 C   0  0  0  0  0  0  0  0  0  0  0  0
   -9.9548    1.0518    2.1162 C   0  0  0  0  0  0  0  0  0  0  0  0
   -9.6433    0.2921    0.9790 C   0  0  0  0  0  0  0  0  0  0  0  0
  -10.6391    0.0019    0.0313 C   0  0  0  0  0  0  0  0  0  0  0  0
  -10.3515   -0.7514   -1.1058 C   0  0  0  0  0  0  0  0  0  0  0  0
   -9.0628   -1.2251   -1.3109 C   0  0  0  0  0  0  0  0  0  0  0  0
   -8.0616   -0.9448   -0.3782 C   0  0  0  0  0  0  0  0  0  0  0  0
   -8.3207   -0.1837    0.7865 C   0  0  0  0  0  0  0  0  0  0  0  0
   -5.5390   -1.5660    2.1712 C   0  0  0  0  0  0  0  0  0  0  0  0
   -4.2150   -1.9971    2.0584 C   0  0  0  0  0  0  0  0  0  0  0  0
   -3.2541   -1.2025    1.4149 C   0  0  0  0  0  0  0  0  0  0  0  0
   -1.9193   -1.6224    1.2932 C   0  0  0  0  0  0  0  0  0  0  0  0
   -0.9563   -0.8270    0.6493 C   0  0  0  0  0  0  0  0  0  0  0  0
    0.3789   -1.2474    0.5273 C   0  0  0  0  0  0  0  0  0  0  0  0
    1.3428   -0.4532   -0.1165 C   0  0  0  0  0  0  0  0  0  0  0  0
    2.6776   -0.8754   -0.2388 C   0  0  0  0  0  0  0  0  0  0  0  0
    3.6413   -0.0820   -0.8829 C   0  0  0  0  0  0  0  0  0  0  0  0
    4.9762   -0.5051   -1.0063 C   0  0  0  0  0  0  0  0  0  0  0  0
   11.1171    0.7980    1.8717 H   0  0  0  0  0  0  0  0  0  0  0  0
    8.8179    1.6529    2.2434 H   0  0  0  0  0  0  0  0  0  0  0  0
    7.0588    1.2284    0.5958 H   0  0  0  0  0  0  0  0  0  0  0  0
   11.6427   -0.4845   -0.1605 H   0  0  0  0  0  0  0  0  0  0  0  0
   10.9609   -1.4813   -2.2899 H   0  0  0  0  0  0  0  0  0  0  0  0
    9.2398   -1.9436   -3.9854 H   0  0  0  0  0  0  0  0  0  0  0  0
    6.9349   -1.1234   -3.6772 H   0  0  0  0  0  0  0  0  0  0  0  0
    6.2729    2.1593   -2.6783 H   0  0  0  0  0  0  0  0  0  0  0  0
    3.9495    2.9253   -2.4800 H   0  0  0  0  0  0  0  0  0  0  0  0
    1.6342    2.5515   -1.7078 H   0  0  0  0  0  0  0  0  0  0  0  0
   -0.6676    2.1768   -0.9421 H   0  0  0  0  0  0  0  0  0  0  0  0
   -2.9687    1.8016   -0.1784 H   0  0  0  0  0  0  0  0  0  0  0  0
   -5.2777    1.4252    0.5876 H   0  0  0  0  0  0  0  0  0  0  0  0
   -6.9291    1.1275    3.6400 H   0  0  0  0  0  0  0  0  0  0  0  0
   -9.2373    1.9390    3.9422 H   0  0  0  0  0  0  0  0  0  0  0  0
  -10.9667    1.4205    2.2714 H   0  0  0  0  0  0  0  0  0  0  0  0
  -11.6553    0.3639    0.1733 H   0  0  0  0  0  0  0  0  0  0  0  0
  -11.1338   -0.9667   -1.8286 H   0  0  0  0  0  0  0  0  0  0  0  0
   -8.8312   -1.8133   -2.1949 H   0  0  0  0  0  0  0  0  0  0  0  0
   -7.0630   -1.3319   -0.5721 H   0  0  0  0  0  0  0  0  0  0  0  0
   -6.2660   -2.2011    2.6738 H   0  0  0  0  0  0  0  0  0  0  0  0
   -3.9408   -2.9621    2.4790 H   0  0  0  0  0  0  0  0  0  0  0  0
   -1.6247   -2.5852    1.7071 H   0  0  0  0  0  0  0  0  0  0  0  0
    0.6734   -2.2105    0.9406 H   0  0  0  0  0  0  0  0  0  0  0  0
    2.9723   -1.8388    0.1739 H   0  0  0  0  0  0  0  0  0  0  0  0
    5.2788   -1.4673   -0.5955 H   0  0  0  0  0  0  0  0  0  0  0  0
  1  2  4  0
  2  3  4  0
  3  4  4  0
  4  5  4  0
  5  6  4  0
  5  7  4  0
  7  8  4  0
  8  9  4  0
  9 10  4  0
 10 11  1  0
 11 12  4  0
 12 13  4  0
 13 14  4  0
 14 15  4  0
 15 16  4  0
 16 17  4  0
 17 18  4  0
 18 19  4  0
 19 20  4  0
 20 21  4  0
 21 22  4  0
 22 23  1  0
 23 24  4  0
 24 25  4  0
 25 26  4  0
 26 27  4  0
 27 28  4  0
 28 29  4  0
 29 30  4  0
 30 31  4  0
 31 32  4  0
 22 33  4  0
 33 34  4  0
 34 35  4  0
 35 36  4  0
 36 37  4  0
 37 38  4  0
 38 39  4  0
 39 40  4  0
 40 41  4  0
 41 42  4  0
  6  1  4  0
 42 11  4  0
 10  4  4  0
 41 14  4  0
 39 16  4  0
 37 18  4  0
 35 20  4  0
 32 23  4  0
 32 27  4  0
  1 43  1  0
  2 44  1  0
  3 45  1  0
  6 46  1  0
  7 47  1  0
  8 48  1  0
  9 49  1  0
 12 50  1  0
 13 51  1  0
 15 52  1  0
 17 53  1  0
 19 54  1  0
 21 55  1  0
 24 56  1  0
 25 57  1  0
 26 58  1  0
 28 59  1  0
 29 60  1  0
 30 61  1  0
 31 62  1  0
 33 63  1  0
 34 64  1  0
 36 65  1  0
 38 66  1  0
 40 67  1  0
 42 68  1  0
M  END
