
     RDKit          3D

 80 90  0  0  0  0  0  0  0  0999 V2000
  -11.0965    2.3551    1.6694 C   0  0  0  0  0  0  0  0  0  0  0  0
   -9.8570    2.9364    1.4222 C   0  0  0  0  0  0  0  0  0  0  0  0
   -8.8369    2.1804    0.8432 C   0  0  0  0  0  0  0  0  0  0  0  0
   -9.0439    0.8328    0.5050 C   0  0  0  0  0  0  0  0  0  0  0  0
   -8.0268    0.0575   -0.0774 C   0  0  0  0  0  0  0  0  0  0  0  0
   -8.2124   -1.3029   -0.4225 C   0  0  0  0  0  0  0  0  0  0  0  0
   -9.4814   -1.8769   -0.1675 C   0  0  0  0  0  0  0  0  0  0  0  0
  -10.4998   -1.1020    0.4141 C   0  0  0  0  0  0  0  0  0  0  0  0
  -10.2982    0.2442    0.7549 C   0  0  0  0  0  0  0  0  0  0  0  0
  -11.3166    1.0172    1.3378 C   0  0  0  0  0  0  0  0  0  0  0  0
   -9.7198   -3.2197   -0.4968 C   0  0  0  0  0  0  0  0  0  0  0  0
   -8.7247   -4.0034   -1.0735 C   0  0  0  0  0  0  0  0  0  0  0  0
   -7.4732   -3.4528   -1.3271 C   0  0  0  0  0  0  0  0  0  0  0  0
   -7.1950   -2.1109   -1.0096 C   0  0  0  0  0  0  0  0  0  0  0  0
   -5.8468   -1.5950   -1.2956 C   0  0  0  0  0  0  0  0  0  0  0  0
   -5.5116   -1.1406   -2.5764 C   0  0  0  0  0  0  0  0  0  0  0  0
   -4.2330   -0.6451   -2.8438 C   0  0  0  0  0  0  0  0  0  0  0  0
   -3.2585   -0.5931   -1.8355 C   0  0  0  0  0  0  0  0  0  0  0  0
   -1.9699   -0.0943   -2.0871 C   0  0  0  0  0  0  0  0  0  0  0  0
   -0.9947   -0.0411   -1.0768 C   0  0  0  0  0  0  0  0  0  0  0  0
    0.2944    0.4579   -1.3281 C   0  0  0  0  0  0  0  0  0  0  0  0
    1.2698    0.5122   -0.3183 C   0  0  0  0  0  0  0  0  0  0  0  0
    2.5586    1.0114   -0.5708 C   0  0  0  0  0  0  0  0  0  0  0  0
    3.5341    1.0662    0.4384 C   0  0  0  0  0  0  0  0  0  0  0  0
    4.8236    1.5651    0.1850 C   0  0  0  0  0  0  0  0  0  0  0  0
    5.7987    1.6162    1.1933 C   0  0  0  0  0  0  0  0  0  0  0  0
    7.1440    2.1402    0.9100 C   0  0  0  0  0  0  0  0  0  0  0  0
    7.3786    3.5112    1.1202 C   0  0  0  0  0  0  0  0  0  0  0  0
    8.6273    4.0699    0.8707 C   0  0  0  0  0  0  0  0  0  0  0  0
    9.6633    3.2651    0.4061 C   0  0  0  0  0  0  0  0  0  0  0  0
    9.4682    1.8934    0.1844 C   0  0  0  0  0  0  0  0  0  0  0  0
   10.5276    1.0979   -0.2849 C   0  0  0  0  0  0  0  0  0  0  0  0
   10.3700   -0.2768   -0.5180 C   0  0  0  0  0  0  0  0  0  0  0  0
   11.4306   -1.0702   -0.9872 C   0  0  0  0  0  0  0  0  0  0  0  0
   11.2545   -2.4361   -1.2135 C   0  0  0  0  0  0  0  0  0  0  0  0
   10.0172   -3.0253   -0.9737 C   0  0  0  0  0  0  0  0  0  0  0  0
    8.9553   -2.2491   -0.5072 C   0  0  0  0  0  0  0  0  0  0  0  0
    9.1179   -0.8730   -0.2750 C   0  0  0  0  0  0  0  0  0  0  0  0
    8.0591   -0.0767    0.1948 C   0  0  0  0  0  0  0  0  0  0  0  0
    8.2019    1.3113    0.4343 C   0  0  0  0  0  0  0  0  0  0  0  0
    5.4639    1.1623    2.4744 C   0  0  0  0  0  0  0  0  0  0  0  0
    4.1864    0.6641    2.7416 C   0  0  0  0  0  0  0  0  0  0  0  0
    3.2122    0.6099    1.7331 C   0  0  0  0  0  0  0  0  0  0  0  0
    1.9237    0.1108    1.9852 C   0  0  0  0  0  0  0  0  0  0  0  0
    0.9484    0.0564    0.9750 C   0  0  0  0  0  0  0  0  0  0  0  0
   -0.3409   -0.4426    1.2263 C   0  0  0  0  0  0  0  0  0  0  0  0
   -1.3163   -0.4971    0.2163 C   0  0  0  0  0  0  0  0  0  0  0  0
   -2.6054   -0.9960    0.4684 C   0  0  0  0  0  0  0  0  0  0  0  0
   -3.5804   -1.0503   -0.5412 C   0  0  0  0  0  0  0  0  0  0  0  0
   -4.8701   -1.5483   -0.2882 C   0  0  0  0  0  0  0  0  0  0  0  0
  -11.8930    2.9413    2.1201 H   0  0  0  0  0  0  0  0  0  0  0  0
   -9.6811    3.9775    1.6791 H   0  0  0  0  0  0  0  0  0  0  0  0
   -7.8741    2.6516    0.6572 H   0  0  0  0  0  0  0  0  0  0  0  0
   -7.0644    0.5306   -0.2672 H   0  0  0  0  0  0  0  0  0  0  0  0
  -11.4709   -1.5554    0.6063 H   0  0  0  0  0  0  0  0  0  0  0  0
  -12.2921    0.5801    1.5384 H   0  0  0  0  0  0  0  0  0  0  0  0
  -10.6920   -3.6693   -0.3049 H   0  0  0  0  0  0  0  0  0  0  0  0
   -8.9239   -5.0421   -1.3229 H   0  0  0  0  0  0  0  0  0  0  0  0
   -6.7009   -4.0764   -1.7742 H   0  0  0  0  0  0  0  0  0  0  0  0
   -6.2515   -1.1650   -3.3741 H   0  0  0  0  0  0  0  0  0  0  0  0
   -4.0053   -0.2971   -3.8488 H   0  0  0  0  0  0  0  0  0  0  0  0
   -1.7222    0.2592   -3.0864 H   0  0  0  0  0  0  0  0  0  0  0  0
    0.5429    0.8111   -2.3275 H   0  0  0  0  0  0  0  0  0  0  0  0
    2.8081    1.3631   -1.5705 H   0  0  0  0  0  0  0  0  0  0  0  0
    5.0801    1.9178   -0.8130 H   0  0  0  0  0  0  0  0  0  0  0  0
    6.5752    4.1502    1.4828 H   0  0  0  0  0  0  0  0  0  0  0  0
    8.7932    5.1307    1.0378 H   0  0  0  0  0  0  0  0  0  0  0  0
   10.6332    3.7208    0.2169 H   0  0  0  0  0  0  0  0  0  0  0  0
   11.4964    1.5575   -0.4731 H   0  0  0  0  0  0  0  0  0  0  0  0
   12.4053   -0.6275   -1.1803 H   0  0  0  0  0  0  0  0  0  0  0  0
   12.0833   -3.0381   -1.5767 H   0  0  0  0  0  0  0  0  0  0  0  0
    9.8765   -4.0886   -1.1489 H   0  0  0  0  0  0  0  0  0  0  0  0
    7.9950   -2.7267   -0.3252 H   0  0  0  0  0  0  0  0  0  0  0  0
    7.0978   -0.5543    0.3784 H   0  0  0  0  0  0  0  0  0  0  0  0
    6.2029    1.1914    3.2729 H   0  0  0  0  0  0  0  0  0  0  0  0
    3.9591    0.3173    3.7473 H   0  0  0  0  0  0  0  0  0  0  0  0
    1.6759   -0.2412    2.9850 H   0  0  0  0  0  0  0  0  0  0  0  0
   -0.5907   -0.7945    2.2258 H   0  0  0  0  0  0  0  0  0  0  0  0
   -2.8559   -1.3471    1.4681 H   0  0  0  0  0  0  0  0  0  0  0  0
   -5.1268   -1.9025    0.7093 H   0  0  0  0  0  0  0  0  0  0  0  0
  1  2  4  0
  2  3  4  0
  3  4  4  0
  4  5  4  0
  5  6  4  0
  6  7  4  0
  7  8  4  0
  8  9  4  0
  9 10  4  0
  7 11  4  0
 11 12  4  0
 12 13  4  0
 13 14  4  0
 14 15  1  0
 15 16  4  0
 16 17  4  0
 17 18  4  0
 18 19  4  0
 19 20  4  0
 20 21  4  0
 21 22  4  0
 22 23  4  0
 23 24  4  0
 24 25  4  0
 25 26  4  0
 26 27  1  0
 27 28  4  0
 28 29  4  0
 29 30  4  0
 30 31  4  0
 31 32  4  0
 32 33  4  0
 33 34  4  0
 34 35  4  0
 35 36  4  0
 36 37  4  0
 37 38  4  0
 38 39  4  0
 39 40  4  0
 26 41  4  0
 41 42  4  0
 42 43  4  0
 43 44  4  0
 44 45  4  0
 45 46  4  0
 46 47  4  0
 47 48  4  0
 48 49  4  0
 49 50  4  0
 10  1  4  0
 50 15  4  0
  9  4  4  0
 49 18  4  0
 14  6  4  0
 47 20  4  0
 45 22  4  0
 43 24  4  0
 40 27  4  0
 40 31  4  0
 38 33  4  0
  1 51  1  0
  2 52  1  0
  3 53  1  0
  5 54  1  0
  8 55  1  0
 10 56  1  0
 11 57  1  0
 12 58  1  0
 13 59  1  0
 16 60  1  0
 17 61  1  0
 19 62  1  0
 21 63  1  0
 23 64  1  0
 25 65  1  0
 28 66  1  0
 29 67  1  0
 30 68  1  0
 32 69  1  0
 34 70  1  0
 35 71  1  0
 36 72  1  0
 37 73  1  0
 39 74  1  0
 41 75  1  0
 42 76  1  0
 44 77  1  0
 46 78  1  0
 48 79  1  0
 50 80  1  0
M  END
