
     RDKit          3D

 80 90  0  0  0  0  0  0  0  0999 V2000
   10.9756    0.1187    3.9228 C   0  0  0  0  0  0  0  0  0  0  0  0
   11.3064   -0.0028    2.5724 C   0  0  0  0  0  0  0  0  0  0  0  0
   10.3373    0.1946    1.5742 C   0  0  0  0  0  0  0  0  0  0  0  0
   10.6515    0.0770    0.2118 C   0  0  0  0  0  0  0  0  0  0  0  0
    9.6844    0.2746   -0.7887 C   0  0  0  0  0  0  0  0  0  0  0  0
   10.0362    0.1489   -2.1411 C   0  0  0  0  0  0  0  0  0  0  0  0
    9.0938    0.3408   -3.1469 C   0  0  0  0  0  0  0  0  0  0  0  0
    7.7831    0.6622   -2.8118 C   0  0  0  0  0  0  0  0  0  0  0  0
    7.3919    0.7972   -1.4671 C   0  0  0  0  0  0  0  0  0  0  0  0
    5.9891    1.1401   -1.1852 C   0  0  0  0  0  0  0  0  0  0  0  0
    5.5879    2.4770   -1.0799 C   0  0  0  0  0  0  0  0  0  0  0  0
    4.2555    2.8013   -0.8126 C   0  0  0  0  0  0  0  0  0  0  0  0
    3.2917    1.7951   -0.6463 C   0  0  0  0  0  0  0  0  0  0  0  0
    1.9484    2.1046   -0.3762 C   0  0  0  0  0  0  0  0  0  0  0  0
    0.9832    1.0970   -0.2091 C   0  0  0  0  0  0  0  0  0  0  0  0
   -0.3606    1.4060    0.0621 C   0  0  0  0  0  0  0  0  0  0  0  0
   -1.3262    0.3990    0.2311 C   0  0  0  0  0  0  0  0  0  0  0  0
   -2.6697    0.7092    0.5041 C   0  0  0  0  0  0  0  0  0  0  0  0
   -3.6348   -0.2972    0.6761 C   0  0  0  0  0  0  0  0  0  0  0  0
   -4.9782    0.0134    0.9528 C   0  0  0  0  0  0  0  0  0  0  0  0
   -5.9410   -0.9934    1.1256 C   0  0  0  0  0  0  0  0  0  0  0  0
   -7.3413   -0.6515    1.4238 C   0  0  0  0  0  0  0  0  0  0  0  0
   -8.3436   -0.5776    0.4125 C   0  0  0  0  0  0  0  0  0  0  0  0
   -8.0873   -0.8084   -0.9606 C   0  0  0  0  0  0  0  0  0  0  0  0
   -9.0944   -0.7337   -1.9384 C   0  0  0  0  0  0  0  0  0  0  0  0
   -8.8195   -0.9684   -3.2961 C   0  0  0  0  0  0  0  0  0  0  0  0
   -9.8317   -0.8918   -4.2539 C   0  0  0  0  0  0  0  0  0  0  0  0
  -11.1310   -0.5797   -3.8669 C   0  0  0  0  0  0  0  0  0  0  0  0
  -11.4187   -0.3432   -2.5219 C   0  0  0  0  0  0  0  0  0  0  0  0
  -10.4091   -0.4166   -1.5472 C   0  0  0  0  0  0  0  0  0  0  0  0
  -10.6787   -0.1806   -0.1906 C   0  0  0  0  0  0  0  0  0  0  0  0
   -9.6708   -0.2549    0.7862 C   0  0  0  0  0  0  0  0  0  0  0  0
   -9.9783   -0.0092    2.1329 C   0  0  0  0  0  0  0  0  0  0  0  0
   -8.9957   -0.0777    3.1157 C   0  0  0  0  0  0  0  0  0  0  0  0
   -7.6889   -0.3966    2.7632 C   0  0  0  0  0  0  0  0  0  0  0  0
   -5.5394   -2.3302    1.0190 C   0  0  0  0  0  0  0  0  0  0  0  0
   -4.2090   -2.6544    0.7424 C   0  0  0  0  0  0  0  0  0  0  0  0
   -3.2461   -1.6484    0.5701 C   0  0  0  0  0  0  0  0  0  0  0  0
   -1.9034   -1.9581    0.2958 C   0  0  0  0  0  0  0  0  0  0  0  0
   -0.9384   -0.9506    0.1256 C   0  0  0  0  0  0  0  0  0  0  0  0
    0.4053   -1.2598   -0.1464 C   0  0  0  0  0  0  0  0  0  0  0  0
    1.3709   -0.2528   -0.3148 C   0  0  0  0  0  0  0  0  0  0  0  0
    2.7148   -0.5628   -0.5851 C   0  0  0  0  0  0  0  0  0  0  0  0
    3.6804    0.4438   -0.7522 C   0  0  0  0  0  0  0  0  0  0  0  0
    5.0249    0.1333   -1.0216 C   0  0  0  0  0  0  0  0  0  0  0  0
    8.3533    0.6012   -0.4329 C   0  0  0  0  0  0  0  0  0  0  0  0
    8.0521    0.7152    0.9459 C   0  0  0  0  0  0  0  0  0  0  0  0
    9.0189    0.5183    1.9472 C   0  0  0  0  0  0  0  0  0  0  0  0
    8.7004    0.6370    3.3106 C   0  0  0  0  0  0  0  0  0  0  0  0
    9.6730    0.4386    4.2918 C   0  0  0  0  0  0  0  0  0  0  0  0
   11.7351   -0.0367    4.6845 H   0  0  0  0  0  0  0  0  0  0  0  0
   12.3299   -0.2537    2.3031 H   0  0  0  0  0  0  0  0  0  0  0  0
   11.6715   -0.1734   -0.0750 H   0  0  0  0  0  0  0  0  0  0  0  0
   11.0568   -0.1016   -2.4235 H   0  0  0  0  0  0  0  0  0  0  0  0
    9.3810    0.2405   -4.1902 H   0  0  0  0  0  0  0  0  0  0  0  0
    7.0542    0.8106   -3.6067 H   0  0  0  0  0  0  0  0  0  0  0  0
    6.3169    3.2756   -1.2030 H   0  0  0  0  0  0  0  0  0  0  0  0
    3.9777    3.8501   -0.7348 H   0  0  0  0  0  0  0  0  0  0  0  0
    1.6498    3.1481   -0.2936 H   0  0  0  0  0  0  0  0  0  0  0  0
   -0.6613    2.4491    0.1444 H   0  0  0  0  0  0  0  0  0  0  0  0
   -2.9697    1.7525    0.5857 H   0  0  0  0  0  0  0  0  0  0  0  0
   -5.2862    1.0549    1.0341 H   0  0  0  0  0  0  0  0  0  0  0  0
   -7.0755   -1.0520   -1.2813 H   0  0  0  0  0  0  0  0  0  0  0  0
   -7.8094   -1.2137   -3.6171 H   0  0  0  0  0  0  0  0  0  0  0  0
   -9.6035   -1.0762   -5.3004 H   0  0  0  0  0  0  0  0  0  0  0  0
  -11.9213   -0.5200   -4.6104 H   0  0  0  0  0  0  0  0  0  0  0  0
  -12.4402   -0.1005   -2.2381 H   0  0  0  0  0  0  0  0  0  0  0  0
  -11.6955    0.0663    0.1102 H   0  0  0  0  0  0  0  0  0  0  0  0
  -10.9954    0.2401    2.4287 H   0  0  0  0  0  0  0  0  0  0  0  0
   -9.2486    0.1150    4.1549 H   0  0  0  0  0  0  0  0  0  0  0  0
   -6.9293   -0.4522    3.5413 H   0  0  0  0  0  0  0  0  0  0  0  0
   -6.2667   -3.1292    1.1506 H   0  0  0  0  0  0  0  0  0  0  0  0
   -3.9314   -3.7032    0.6642 H   0  0  0  0  0  0  0  0  0  0  0  0
   -1.6041   -3.0015    0.2147 H   0  0  0  0  0  0  0  0  0  0  0  0
    0.7058   -2.3030   -0.2274 H   0  0  0  0  0  0  0  0  0  0  0  0
    3.0162   -1.6059   -0.6655 H   0  0  0  0  0  0  0  0  0  0  0  0
    5.3334   -0.9081   -1.1028 H   0  0  0  0  0  0  0  0  0  0  0  0
    7.0372    0.9645    1.2519 H   0  0  0  0  0  0  0  0  0  0  0  0
    7.6869    0.8862    3.6177 H   0  0  0  0  0  0  0  0  0  0  0  0
    9.4117    0.5339    5.3424 H   0  0  0  0  0  0  0  0  0  0  0  0
  1  2  4  0
  2  3  4  0
  3  4  4  0
  4  5  4  0
  5  6  4  0
  6  7  4  0
  7  8  4  0
  8  9  4  0
  9 10  1  0
 10 11  4  0
 11 12  4  0
 12 13  4  0
 13 14  4  0
 14 15  4  0
 15 16  4  0
 16 17  4  0
 17 18  4  0
 18 19  4  0
 19 20  4  0
 20 21  4  0
 21 22  1  0
 22 23  4  0
 23 24  4  0
 24 25  4  0
 25 26  4  0
 26 27  4  0
 27 28  4  0
 28 29  4  0
 29 30  4  0
 30 31  4  0
 31 32  4  0
 32 33  4  0
 33 34  4  0
 34 35  4  0
 21 36  4  0
 36 37  4  0
 37 38  4  0
 38 39  4  0
 39 40  4  0
 40 41  4  0
 41 42  4  0
 42 43  4  0
 43 44  4  0
 44 45  4  0
  9 46  4  0
 46 47  4  0
 47 48  4  0
 48 49  4  0
 49 50  4  0
 50  1  4  0
 48  3  4  0
 46  5  4  0
 45 10  4  0
 44 13  4  0
 42 15  4  0
 40 17  4  0
 38 19  4  0
 35 22  4  0
 32 23  4  0
 30 25  4  0
  1 51  1  0
  2 52  1  0
  4 53  1  0
  6 54  1  0
  7 55  1  0
  8 56  1  0
 11 57  1  0
 12 58  1  0
 14 59  1  0
 16 60  1  0
 18 61  1  0
 20 62  1  0
 24 63  1  0
 26 64  1  0
 27 65  1  0
 28 66  1  0
 29 67  1  0
 31 68  1  0
 33 69  1  0
 34 70  1  0
 35 71  1  0
 36 72  1  0
 37 73  1  0
 39 74  1  0
 41 75  1  0
 43 76  1  0
 45 77  1  0
 47 78  1  0
 49 79  1  0
 50 80  1  0
M  END
