
     RDKit          3D

100114  0  0  0  0  0  0  0  0999 V2000
  -10.0743    6.8811   -3.8436 C   0  0  0  0  0  0  0  0  0  0  0  0
   -8.6907    7.0254   -3.7998 C   0  0  0  0  0  0  0  0  0  0  0  0
   -7.9261    6.1766   -2.9982 C   0  0  0  0  0  0  0  0  0  0  0  0
   -8.5381    5.1723   -2.2305 C   0  0  0  0  0  0  0  0  0  0  0  0
   -7.7902    4.3074   -1.4171 C   0  0  0  0  0  0  0  0  0  0  0  0
   -8.3931    3.3137   -0.6567 C   0  0  0  0  0  0  0  0  0  0  0  0
   -7.6327    2.5095    0.1082 N   0  0  0  0  0  0  0  0  0  0  0  0
   -8.2580    1.5604    0.8289 C   0  0  0  0  0  0  0  0  0  0  0  0
   -7.5154    0.7061    1.6356 C   0  0  0  0  0  0  0  0  0  0  0  0
   -8.1051   -0.3113    2.4212 C   0  0  0  0  0  0  0  0  0  0  0  0
   -9.5105   -0.4443    2.3593 C   0  0  0  0  0  0  0  0  0  0  0  0
  -10.2555    0.4209    1.5430 C   0  0  0  0  0  0  0  0  0  0  0  0
   -9.6564    1.4147    0.7829 C   0  0  0  0  0  0  0  0  0  0  0  0
  -10.4195    2.2176    0.0185 N   0  0  0  0  0  0  0  0  0  0  0  0
   -9.7945    3.1670   -0.7014 C   0  0  0  0  0  0  0  0  0  0  0  0
  -10.5408    4.0198   -1.5043 C   0  0  0  0  0  0  0  0  0  0  0  0
   -9.9385    5.0260   -2.2748 C   0  0  0  0  0  0  0  0  0  0  0  0
  -10.6956    5.8874   -3.0858 C   0  0  0  0  0  0  0  0  0  0  0  0
  -10.1550   -1.4376    3.1116 C   0  0  0  0  0  0  0  0  0  0  0  0
   -9.4278   -2.3013    3.9250 C   0  0  0  0  0  0  0  0  0  0  0  0
   -8.0439   -2.1803    3.9970 C   0  0  0  0  0  0  0  0  0  0  0  0
   -7.3637   -1.1956    3.2577 C   0  0  0  0  0  0  0  0  0  0  0  0
   -5.9000   -1.1187    3.3846 C   0  0  0  0  0  0  0  0  0  0  0  0
   -5.3079   -0.2532    4.3120 C   0  0  0  0  0  0  0  0  0  0  0  0
   -3.9179   -0.1803    4.4313 C   0  0  0  0  0  0  0  0  0  0  0  0
   -3.0863   -0.9744    3.6272 C   0  0  0  0  0  0  0  0  0  0  0  0
   -1.6872   -0.9117    3.7342 C   0  0  0  0  0  0  0  0  0  0  0  0
   -0.8548   -1.7074    2.9295 C   0  0  0  0  0  0  0  0  0  0  0  0
    0.5444   -1.6441    3.0366 C   0  0  0  0  0  0  0  0  0  0  0  0
    1.3779   -2.4386    2.2323 C   0  0  0  0  0  0  0  0  0  0  0  0
    2.7768   -2.3727    2.3405 C   0  0  0  0  0  0  0  0  0  0  0  0
    3.6116   -3.1632    1.5342 C   0  0  0  0  0  0  0  0  0  0  0  0
    5.0111   -3.0931    1.6406 C   0  0  0  0  0  0  0  0  0  0  0  0
    5.8461   -3.8771    0.8293 C   0  0  0  0  0  0  0  0  0  0  0  0
    7.3092   -3.7852    0.9505 C   0  0  0  0  0  0  0  0  0  0  0  0
    7.9660   -4.7030    1.7900 C   0  0  0  0  0  0  0  0  0  0  0  0
    9.3469   -4.6634    1.9519 C   0  0  0  0  0  0  0  0  0  0  0  0
   10.0944   -3.7040    1.2758 C   0  0  0  0  0  0  0  0  0  0  0  0
    9.4736   -2.7734    0.4291 C   0  0  0  0  0  0  0  0  0  0  0  0
   10.2381   -1.8107   -0.2488 C   0  0  0  0  0  0  0  0  0  0  0  0
    9.6625   -0.8753   -1.0966 C   0  0  0  0  0  0  0  0  0  0  0  0
   10.4432    0.0249   -1.7228 N   0  0  0  0  0  0  0  0  0  0  0  0
    9.8403    0.9098   -2.5381 C   0  0  0  0  0  0  0  0  0  0  0  0
   10.6043    1.8566   -3.2086 C   0  0  0  0  0  0  0  0  0  0  0  0
   10.0241    2.7995   -4.0713 C   0  0  0  0  0  0  0  0  0  0  0  0
   10.7983    3.7554   -4.7497 C   0  0  0  0  0  0  0  0  0  0  0  0
   10.1979    4.6823   -5.6033 C   0  0  0  0  0  0  0  0  0  0  0  0
    8.8187    4.6648   -5.7888 C   0  0  0  0  0  0  0  0  0  0  0  0
    8.0373    3.7207   -5.1212 C   0  0  0  0  0  0  0  0  0  0  0  0
    8.6281    2.7824   -4.2593 C   0  0  0  0  0  0  0  0  0  0  0  0
    7.8623    1.8244   -3.5782 C   0  0  0  0  0  0  0  0  0  0  0  0
    8.4434    0.8942   -2.7264 C   0  0  0  0  0  0  0  0  0  0  0  0
    7.6654   -0.0049   -2.0975 N   0  0  0  0  0  0  0  0  0  0  0  0
    8.2684   -0.8909   -1.2839 C   0  0  0  0  0  0  0  0  0  0  0  0
    7.5064   -1.8412   -0.6148 C   0  0  0  0  0  0  0  0  0  0  0  0
    8.0718   -2.8026    0.2545 C   0  0  0  0  0  0  0  0  0  0  0  0
    5.2579   -4.7484   -0.0949 C   0  0  0  0  0  0  0  0  0  0  0  0
    3.8680   -4.8305   -0.2104 C   0  0  0  0  0  0  0  0  0  0  0  0
    3.0329   -4.0432    0.5970 C   0  0  0  0  0  0  0  0  0  0  0  0
    1.6337   -4.1111    0.4912 C   0  0  0  0  0  0  0  0  0  0  0  0
    0.7987   -3.3184    1.2971 C   0  0  0  0  0  0  0  0  0  0  0  0
   -0.6010   -3.3820    1.1906 C   0  0  0  0  0  0  0  0  0  0  0  0
   -1.4349   -2.5870    1.9952 C   0  0  0  0  0  0  0  0  0  0  0  0
   -2.8345   -2.6495    1.8874 C   0  0  0  0  0  0  0  0  0  0  0  0
   -3.6680   -1.8542    2.6914 C   0  0  0  0  0  0  0  0  0  0  0  0
   -5.0684   -1.9159    2.5825 C   0  0  0  0  0  0  0  0  0  0  0  0
  -10.6713    7.5418   -4.4672 H   0  0  0  0  0  0  0  0  0  0  0  0
   -8.2051    7.7990   -4.3892 H   0  0  0  0  0  0  0  0  0  0  0  0
   -6.8457    6.3049   -2.9762 H   0  0  0  0  0  0  0  0  0  0  0  0
   -6.7076    4.4033   -1.3682 H   0  0  0  0  0  0  0  0  0  0  0  0
   -6.4357    0.8473    1.6442 H   0  0  0  0  0  0  0  0  0  0  0  0
  -11.3384    0.3259    1.4912 H   0  0  0  0  0  0  0  0  0  0  0  0
  -11.6206    3.8897   -1.5239 H   0  0  0  0  0  0  0  0  0  0  0  0
  -11.7783    5.7897   -3.1326 H   0  0  0  0  0  0  0  0  0  0  0  0
  -11.2373   -1.5468    3.0691 H   0  0  0  0  0  0  0  0  0  0  0  0
   -9.9388   -3.0668    4.5032 H   0  0  0  0  0  0  0  0  0  0  0  0
   -7.4858   -2.8597    4.6394 H   0  0  0  0  0  0  0  0  0  0  0  0
   -5.9300    0.3742    4.9475 H   0  0  0  0  0  0  0  0  0  0  0  0
   -3.4894    0.5048    5.1596 H   0  0  0  0  0  0  0  0  0  0  0  0
   -1.2380   -0.2319    4.4563 H   0  0  0  0  0  0  0  0  0  0  0  0
    0.9927   -0.9629    3.7578 H   0  0  0  0  0  0  0  0  0  0  0  0
    3.2245   -1.6923    3.0630 H   0  0  0  0  0  0  0  0  0  0  0  0
    5.4636   -2.4142    2.3621 H   0  0  0  0  0  0  0  0  0  0  0  0
    7.3911   -5.4564    2.3264 H   0  0  0  0  0  0  0  0  0  0  0  0
    9.8392   -5.3790    2.6054 H   0  0  0  0  0  0  0  0  0  0  0  0
   11.1739   -3.6884    1.4155 H   0  0  0  0  0  0  0  0  0  0  0  0
   11.3183   -1.7813   -0.1194 H   0  0  0  0  0  0  0  0  0  0  0  0
   11.6805    1.8519   -3.0499 H   0  0  0  0  0  0  0  0  0  0  0  0
   11.8781    3.7846   -4.6180 H   0  0  0  0  0  0  0  0  0  0  0  0
   10.8078    5.4170   -6.1232 H   0  0  0  0  0  0  0  0  0  0  0  0
    8.3496    5.3857   -6.4537 H   0  0  0  0  0  0  0  0  0  0  0  0
    6.9606    3.7212   -5.2789 H   0  0  0  0  0  0  0  0  0  0  0  0
    6.7827    1.7937   -3.7095 H   0  0  0  0  0  0  0  0  0  0  0  0
    6.4314   -1.8238   -0.7868 H   0  0  0  0  0  0  0  0  0  0  0  0
    5.8829   -5.3662   -0.7367 H   0  0  0  0  0  0  0  0  0  0  0  0
    3.4418   -5.5146   -0.9410 H   0  0  0  0  0  0  0  0  0  0  0  0
    1.1877   -4.7920   -0.2317 H   0  0  0  0  0  0  0  0  0  0  0  0
   -1.0505   -4.0606    0.4676 H   0  0  0  0  0  0  0  0  0  0  0  0
   -3.2834   -3.3281    1.1640 H   0  0  0  0  0  0  0  0  0  0  0  0
   -5.5238   -2.5910    1.8594 H   0  0  0  0  0  0  0  0  0  0  0  0
  1  2  4  0
  2  3  4  0
  3  4  4  0
  4  5  4  0
  5  6  4  0
  6  7  4  0
  7  8  4  0
  8  9  4  0
  9 10  4  0
 10 11  4  0
 11 12  4  0
 12 13  4  0
 13 14  4  0
 14 15  4  0
 15 16  4  0
 16 17  4  0
 17 18  4  0
 11 19  4  0
 19 20  4  0
 20 21  4  0
 21 22  4  0
 22 23  1  0
 23 24  4  0
 24 25  4  0
 25 26  4  0
 26 27  4  0
 27 28  4  0
 28 29  4  0
 29 30  4  0
 30 31  4  0
 31 32  4  0
 32 33  4  0
 33 34  4  0
 34 35  1  0
 35 36  4  0
 36 37  4  0
 37 38  4  0
 38 39  4  0
 39 40  4  0
 40 41  4  0
 41 42  4  0
 42 43  4  0
 43 44  4  0
 44 45  4  0
 45 46  4  0
 46 47  4  0
 47 48  4  0
 48 49  4  0
 49 50  4  0
 50 51  4  0
 51 52  4  0
 52 53  4  0
 53 54  4  0
 54 55  4  0
 55 56  4  0
 34 57  4  0
 57 58  4  0
 58 59  4  0
 59 60  4  0
 60 61  4  0
 61 62  4  0
 62 63  4  0
 63 64  4  0
 64 65  4  0
 65 66  4  0
 18  1  4  0
 66 23  4  0
 17  4  4  0
 65 26  4  0
 15  6  4  0
 63 28  4  0
 13  8  4  0
 61 30  4  0
 22 10  4  0
 59 32  4  0
 56 35  4  0
 56 39  4  0
 54 41  4  0
 52 43  4  0
 50 45  4  0
  1 67  1  0
  2 68  1  0
  3 69  1  0
  5 70  1  0
  9 71  1  0
 12 72  1  0
 16 73  1  0
 18 74  1  0
 19 75  1  0
 20 76  1  0
 21 77  1  0
 24 78  1  0
 25 79  1  0
 27 80  1  0
 29 81  1  0
 31 82  1  0
 33 83  1  0
 36 84  1  0
 37 85  1  0
 38 86  1  0
 40 87  1  0
 44 88  1  0
 46 89  1  0
 47 90  1  0
 48 91  1  0
 49 92  1  0
 51 93  1  0
 55 94  1  0
 57 95  1  0
 58 96  1  0
 60 97  1  0
 62 98  1  0
 64 99  1  0
 66100  1  0
M  END
