
     RDKit          3D

100114  0  0  0  0  0  0  0  0999 V2000
    9.9952    5.9841    1.5500 C   0  0  0  0  0  0  0  0  0  0  0  0
    8.6182    6.0810    1.7279 C   0  0  0  0  0  0  0  0  0  0  0  0
    7.8335    4.9266    1.7376 C   0  0  0  0  0  0  0  0  0  0  0  0
    8.4183    3.6605    1.5691 C   0  0  0  0  0  0  0  0  0  0  0  0
    7.6507    2.4856    1.5748 C   0  0  0  0  0  0  0  0  0  0  0  0
    8.2281    1.2331    1.4072 C   0  0  0  0  0  0  0  0  0  0  0  0
    7.4533    0.1343    1.4177 N   0  0  0  0  0  0  0  0  0  0  0  0
    8.0351   -1.0783    1.2500 C   0  0  0  0  0  0  0  0  0  0  0  0
    9.4312   -1.1541    1.0716 C   0  0  0  0  0  0  0  0  0  0  0  0
   10.2120   -0.0584    1.0613 N   0  0  0  0  0  0  0  0  0  0  0  0
    9.6186    1.1357    1.2274 C   0  0  0  0  0  0  0  0  0  0  0  0
   10.3866    2.2935    1.2210 C   0  0  0  0  0  0  0  0  0  0  0  0
    9.8120    3.5626    1.3889 C   0  0  0  0  0  0  0  0  0  0  0  0
   10.5897    4.7326    1.3815 C   0  0  0  0  0  0  0  0  0  0  0  0
   10.0379   -2.3859    0.8989 C   0  0  0  0  0  0  0  0  0  0  0  0
    9.3102   -3.5797    0.8884 C   0  0  0  0  0  0  0  0  0  0  0  0
    9.9693   -4.8078    0.7048 C   0  0  0  0  0  0  0  0  0  0  0  0
    9.2603   -6.0068    0.6858 C   0  0  0  0  0  0  0  0  0  0  0  0
    7.8827   -5.9914    0.8485 C   0  0  0  0  0  0  0  0  0  0  0  0
    7.2183   -4.7765    1.0322 C   0  0  0  0  0  0  0  0  0  0  0  0
    7.9109   -3.5400    1.0610 C   0  0  0  0  0  0  0  0  0  0  0  0
    7.2776   -2.2711    1.2485 C   0  0  0  0  0  0  0  0  0  0  0  0
    5.8133   -2.1899    1.4437 C   0  0  0  0  0  0  0  0  0  0  0  0
    5.2477   -2.3802    2.7113 C   0  0  0  0  0  0  0  0  0  0  0  0
    3.8624   -2.3319    2.8886 C   0  0  0  0  0  0  0  0  0  0  0  0
    3.0081   -2.0870    1.8028 C   0  0  0  0  0  0  0  0  0  0  0  0
    1.6131   -2.0388    1.9630 C   0  0  0  0  0  0  0  0  0  0  0  0
    0.7586   -1.7905    0.8753 C   0  0  0  0  0  0  0  0  0  0  0  0
   -0.6369   -1.7429    1.0339 C   0  0  0  0  0  0  0  0  0  0  0  0
   -1.4909   -1.4938   -0.0538 C   0  0  0  0  0  0  0  0  0  0  0  0
   -2.8860   -1.4472    0.1054 C   0  0  0  0  0  0  0  0  0  0  0  0
   -3.7398   -1.1989   -0.9819 C   0  0  0  0  0  0  0  0  0  0  0  0
   -5.1355   -1.1561   -0.8216 C   0  0  0  0  0  0  0  0  0  0  0  0
   -5.9897   -0.9114   -1.9090 C   0  0  0  0  0  0  0  0  0  0  0  0
   -7.4570   -0.8937   -1.7261 C   0  0  0  0  0  0  0  0  0  0  0  0
   -8.2268   -2.0770   -1.9532 C   0  0  0  0  0  0  0  0  0  0  0  0
   -7.6719   -3.3201   -2.3473 C   0  0  0  0  0  0  0  0  0  0  0  0
   -8.4659   -4.4497   -2.5572 C   0  0  0  0  0  0  0  0  0  0  0  0
   -9.8392   -4.3703   -2.3784 C   0  0  0  0  0  0  0  0  0  0  0  0
  -10.4148   -3.1628   -1.9891 C   0  0  0  0  0  0  0  0  0  0  0  0
   -9.6245   -2.0204   -1.7743 C   0  0  0  0  0  0  0  0  0  0  0  0
  -10.2184   -0.8181   -1.3787 C   0  0  0  0  0  0  0  0  0  0  0  0
   -9.4790    0.3293   -1.1508 C   0  0  0  0  0  0  0  0  0  0  0  0
  -10.1356    1.4392   -0.7669 N   0  0  0  0  0  0  0  0  0  0  0  0
   -9.4122    2.5493   -0.5433 C   0  0  0  0  0  0  0  0  0  0  0  0
  -10.0484    3.7175   -0.1422 C   0  0  0  0  0  0  0  0  0  0  0  0
   -9.3345    4.8997    0.1058 C   0  0  0  0  0  0  0  0  0  0  0  0
   -9.9784    6.0798    0.5128 C   0  0  0  0  0  0  0  0  0  0  0  0
   -9.2461    7.2431    0.7543 C   0  0  0  0  0  0  0  0  0  0  0  0
   -7.8639    7.2411    0.5919 C   0  0  0  0  0  0  0  0  0  0  0  0
   -7.2112    6.0756    0.1877 C   0  0  0  0  0  0  0  0  0  0  0  0
   -7.9354    4.8976   -0.0587 C   0  0  0  0  0  0  0  0  0  0  0  0
   -7.3015    3.7138   -0.4655 C   0  0  0  0  0  0  0  0  0  0  0  0
   -8.0164    2.5479   -0.7078 C   0  0  0  0  0  0  0  0  0  0  0  0
   -7.3665    1.4366   -1.0938 N   0  0  0  0  0  0  0  0  0  0  0  0
   -8.0803    0.3076   -1.3219 C   0  0  0  0  0  0  0  0  0  0  0  0
   -5.4225   -0.6988   -3.1721 C   0  0  0  0  0  0  0  0  0  0  0  0
   -4.0370   -0.7383   -3.3464 C   0  0  0  0  0  0  0  0  0  0  0  0
   -3.1843   -0.9895   -2.2607 C   0  0  0  0  0  0  0  0  0  0  0  0
   -1.7895   -1.0358   -2.4196 C   0  0  0  0  0  0  0  0  0  0  0  0
   -0.9362   -1.2861   -1.3316 C   0  0  0  0  0  0  0  0  0  0  0  0
    0.4588   -1.3336   -1.4902 C   0  0  0  0  0  0  0  0  0  0  0  0
    1.3128   -1.5840   -0.4028 C   0  0  0  0  0  0  0  0  0  0  0  0
    2.7078   -1.6330   -0.5635 C   0  0  0  0  0  0  0  0  0  0  0  0
    3.5627   -1.8835    0.5225 C   0  0  0  0  0  0  0  0  0  0  0  0
    4.9581   -1.9370    0.3590 C   0  0  0  0  0  0  0  0  0  0  0  0
   10.6077    6.8821    1.5423 H   0  0  0  0  0  0  0  0  0  0  0  0
    8.1534    7.0548    1.8595 H   0  0  0  0  0  0  0  0  0  0  0  0
    6.7587    5.0220    1.8782 H   0  0  0  0  0  0  0  0  0  0  0  0
    6.5724    2.5369    1.7123 H   0  0  0  0  0  0  0  0  0  0  0  0
   11.4608    2.1949    1.0802 H   0  0  0  0  0  0  0  0  0  0  0  0
   11.6677    4.6768    1.2440 H   0  0  0  0  0  0  0  0  0  0  0  0
   11.1182   -2.4057    0.7651 H   0  0  0  0  0  0  0  0  0  0  0  0
   11.0494   -4.8396    0.5727 H   0  0  0  0  0  0  0  0  0  0  0  0
    9.7836   -6.9484    0.5420 H   0  0  0  0  0  0  0  0  0  0  0  0
    7.3192   -6.9209    0.8319 H   0  0  0  0  0  0  0  0  0  0  0  0
    6.1362   -4.8069    1.1514 H   0  0  0  0  0  0  0  0  0  0  0  0
    5.8872   -2.5686    3.5712 H   0  0  0  0  0  0  0  0  0  0  0  0
    3.4564   -2.4851    3.8860 H   0  0  0  0  0  0  0  0  0  0  0  0
    1.1852   -2.1968    2.9514 H   0  0  0  0  0  0  0  0  0  0  0  0
   -1.0675   -1.9022    2.0211 H   0  0  0  0  0  0  0  0  0  0  0  0
   -3.3168   -1.6059    1.0926 H   0  0  0  0  0  0  0  0  0  0  0  0
   -5.5702   -1.3133    0.1642 H   0  0  0  0  0  0  0  0  0  0  0  0
   -6.5980   -3.4241   -2.4948 H   0  0  0  0  0  0  0  0  0  0  0  0
   -8.0060   -5.3874   -2.8586 H   0  0  0  0  0  0  0  0  0  0  0  0
  -10.4629   -5.2456   -2.5392 H   0  0  0  0  0  0  0  0  0  0  0  0
  -11.4938   -3.1205   -1.8520 H   0  0  0  0  0  0  0  0  0  0  0  0
  -11.2966   -0.7641   -1.2370 H   0  0  0  0  0  0  0  0  0  0  0  0
  -11.1292    3.6964   -0.0214 H   0  0  0  0  0  0  0  0  0  0  0  0
  -11.0583    6.1011    0.6448 H   0  0  0  0  0  0  0  0  0  0  0  0
   -9.7559    8.1502    1.0687 H   0  0  0  0  0  0  0  0  0  0  0  0
   -7.2922    8.1465    0.7792 H   0  0  0  0  0  0  0  0  0  0  0  0
   -6.1300    6.0927    0.0656 H   0  0  0  0  0  0  0  0  0  0  0  0
   -6.2219    3.6886   -0.5991 H   0  0  0  0  0  0  0  0  0  0  0  0
   -6.0609   -0.4989   -4.0302 H   0  0  0  0  0  0  0  0  0  0  0  0
   -3.6292   -0.5688   -4.3403 H   0  0  0  0  0  0  0  0  0  0  0  0
   -1.3611   -0.8735   -3.4069 H   0  0  0  0  0  0  0  0  0  0  0  0
    0.8889   -1.1732   -2.4774 H   0  0  0  0  0  0  0  0  0  0  0  0
    3.1375   -1.4720   -1.5507 H   0  0  0  0  0  0  0  0  0  0  0  0
    5.3913   -1.7783   -0.6272 H   0  0  0  0  0  0  0  0  0  0  0  0
  1  2  4  0
  2  3  4  0
  3  4  4  0
  4  5  4  0
  5  6  4  0
  6  7  4  0
  7  8  4  0
  8  9  4  0
  9 10  4  0
 10 11  4  0
 11 12  4  0
 12 13  4  0
 13 14  4  0
  9 15  4  0
 15 16  4  0
 16 17  4  0
 17 18  4  0
 18 19  4  0
 19 20  4  0
 20 21  4  0
 21 22  4  0
 22 23  1  0
 23 24  4  0
 24 25  4  0
 25 26  4  0
 26 27  4  0
 27 28  4  0
 28 29  4  0
 29 30  4  0
 30 31  4  0
 31 32  4  0
 32 33  4  0
 33 34  4  0
 34 35  1  0
 35 36  4  0
 36 37  4  0
 37 38  4  0
 38 39  4  0
 39 40  4  0
 40 41  4  0
 41 42  4  0
 42 43  4  0
 43 44  4  0
 44 45  4  0
 45 46  4  0
 46 47  4  0
 47 48  4  0
 48 49  4  0
 49 50  4  0
 50 51  4  0
 51 52  4  0
 52 53  4  0
 53 54  4  0
 54 55  4  0
 55 56  4  0
 34 57  4  0
 57 58  4  0
 58 59  4  0
 59 60  4  0
 60 61  4  0
 61 62  4  0
 62 63  4  0
 63 64  4  0
 64 65  4  0
 65 66  4  0
 14  1  4  0
 21 16  4  0
 66 23  4  0
 13  4  4  0
 65 26  4  0
 11  6  4  0
 63 28  4  0
 22  8  4  0
 61 30  4  0
 59 32  4  0
 56 35  4  0
 41 36  4  0
 56 43  4  0
 54 45  4  0
 52 47  4  0
  1 67  1  0
  2 68  1  0
  3 69  1  0
  5 70  1  0
 12 71  1  0
 14 72  1  0
 15 73  1  0
 17 74  1  0
 18 75  1  0
 19 76  1  0
 20 77  1  0
 24 78  1  0
 25 79  1  0
 27 80  1  0
 29 81  1  0
 31 82  1  0
 33 83  1  0
 37 84  1  0
 38 85  1  0
 39 86  1  0
 40 87  1  0
 42 88  1  0
 46 89  1  0
 48 90  1  0
 49 91  1  0
 50 92  1  0
 51 93  1  0
 53 94  1  0
 57 95  1  0
 58 96  1  0
 60 97  1  0
 62 98  1  0
 64 99  1  0
 66100  1  0
M  END
