
     RDKit          3D

100114  0  0  0  0  0  0  0  0999 V2000
   18.6217   -1.7478   -0.4775 C   0  0  0  0  0  0  0  0  0  0  0  0
   18.0566   -2.5001   -1.5030 C   0  0  0  0  0  0  0  0  0  0  0  0
   16.6871   -2.4147   -1.7573 C   0  0  0  0  0  0  0  0  0  0  0  0
   15.8666   -1.5743   -0.9872 C   0  0  0  0  0  0  0  0  0  0  0  0
   14.4875   -1.4719   -1.2243 C   0  0  0  0  0  0  0  0  0  0  0  0
   13.6740   -0.6416   -0.4643 C   0  0  0  0  0  0  0  0  0  0  0  0
   12.3566   -0.5787   -0.7315 N   0  0  0  0  0  0  0  0  0  0  0  0
   11.6054    0.2388    0.0288 C   0  0  0  0  0  0  0  0  0  0  0  0
   10.2403    0.3363   -0.2106 C   0  0  0  0  0  0  0  0  0  0  0  0
    9.4106    1.1712    0.5546 C   0  0  0  0  0  0  0  0  0  0  0  0
    8.0272    1.2657    0.3119 C   0  0  0  0  0  0  0  0  0  0  0  0
    7.1972    2.1009    1.0800 C   0  0  0  0  0  0  0  0  0  0  0  0
    5.7498    2.1823    0.8186 C   0  0  0  0  0  0  0  0  0  0  0  0
    5.1218    3.4157    0.5963 C   0  0  0  0  0  0  0  0  0  0  0  0
    3.7469    3.4911    0.3497 C   0  0  0  0  0  0  0  0  0  0  0  0
    2.9594    2.3314    0.3189 C   0  0  0  0  0  0  0  0  0  0  0  0
    1.5775    2.3890    0.0725 C   0  0  0  0  0  0  0  0  0  0  0  0
    0.7889    1.2261    0.0439 C   0  0  0  0  0  0  0  0  0  0  0  0
   -0.5938    1.2815   -0.2018 C   0  0  0  0  0  0  0  0  0  0  0  0
   -1.3820    0.1181   -0.2303 C   0  0  0  0  0  0  0  0  0  0  0  0
   -2.7650    0.1727   -0.4760 C   0  0  0  0  0  0  0  0  0  0  0  0
   -3.5520   -0.9913   -0.5058 C   0  0  0  0  0  0  0  0  0  0  0  0
   -4.9365   -0.9380   -0.7537 C   0  0  0  0  0  0  0  0  0  0  0  0
   -5.7267   -2.0998   -0.7901 C   0  0  0  0  0  0  0  0  0  0  0  0
   -7.1723   -2.0258   -1.0587 C   0  0  0  0  0  0  0  0  0  0  0  0
   -8.0173   -1.2245   -0.2714 C   0  0  0  0  0  0  0  0  0  0  0  0
   -9.4009   -1.1434   -0.5188 C   0  0  0  0  0  0  0  0  0  0  0  0
  -10.2481   -0.3459    0.2671 C   0  0  0  0  0  0  0  0  0  0  0  0
  -11.6140   -0.2640    0.0239 C   0  0  0  0  0  0  0  0  0  0  0  0
  -12.3832    0.5159    0.8058 N   0  0  0  0  0  0  0  0  0  0  0  0
  -13.7004    0.5641    0.5342 C   0  0  0  0  0  0  0  0  0  0  0  0
  -14.5323    1.3550    1.3161 C   0  0  0  0  0  0  0  0  0  0  0  0
  -15.9120    1.4405    1.0752 C   0  0  0  0  0  0  0  0  0  0  0  0
  -16.7512    2.2411    1.8674 C   0  0  0  0  0  0  0  0  0  0  0  0
  -18.1209    2.3103    1.6087 C   0  0  0  0  0  0  0  0  0  0  0  0
  -18.6674    1.5813    0.5567 C   0  0  0  0  0  0  0  0  0  0  0  0
  -17.8452    0.7817   -0.2385 C   0  0  0  0  0  0  0  0  0  0  0  0
  -16.4653    0.7026    0.0104 C   0  0  0  0  0  0  0  0  0  0  0  0
  -15.6193   -0.0944   -0.7755 C   0  0  0  0  0  0  0  0  0  0  0  0
  -14.2544   -0.1744   -0.5316 C   0  0  0  0  0  0  0  0  0  0  0  0
  -13.4853   -0.9532   -1.3142 N   0  0  0  0  0  0  0  0  0  0  0  0
  -12.1683   -1.0020   -1.0416 C   0  0  0  0  0  0  0  0  0  0  0  0
  -11.3359   -1.7938   -1.8224 C   0  0  0  0  0  0  0  0  0  0  0  0
   -9.9561   -1.8801   -1.5806 C   0  0  0  0  0  0  0  0  0  0  0  0
   -9.1192   -2.6814   -2.3700 C   0  0  0  0  0  0  0  0  0  0  0  0
   -7.7473   -2.7524   -2.1105 C   0  0  0  0  0  0  0  0  0  0  0  0
   -5.0957   -3.3318   -0.5687 C   0  0  0  0  0  0  0  0  0  0  0  0
   -3.7216   -3.4030   -0.3189 C   0  0  0  0  0  0  0  0  0  0  0  0
   -2.9387   -2.2405   -0.2851 C   0  0  0  0  0  0  0  0  0  0  0  0
   -1.5575   -2.2955   -0.0376 C   0  0  0  0  0  0  0  0  0  0  0  0
   -0.7716   -1.1313   -0.0078 C   0  0  0  0  0  0  0  0  0  0  0  0
    0.6105   -1.1868    0.2382 C   0  0  0  0  0  0  0  0  0  0  0  0
    1.3982   -0.0237    0.2668 C   0  0  0  0  0  0  0  0  0  0  0  0
    2.7806   -0.0808    0.5128 C   0  0  0  0  0  0  0  0  0  0  0  0
    3.5697    1.0812    0.5409 C   0  0  0  0  0  0  0  0  0  0  0  0
    4.9542    1.0239    0.7872 C   0  0  0  0  0  0  0  0  0  0  0  0
    7.7895    2.8506    2.1059 C   0  0  0  0  0  0  0  0  0  0  0  0
    9.1624    2.7683    2.3594 C   0  0  0  0  0  0  0  0  0  0  0  0
    9.9831    1.9311    1.5905 C   0  0  0  0  0  0  0  0  0  0  0  0
   11.3630    1.8300    1.8276 C   0  0  0  0  0  0  0  0  0  0  0  0
   12.1779    1.0004    1.0679 C   0  0  0  0  0  0  0  0  0  0  0  0
   13.4952    0.9374    1.3356 N   0  0  0  0  0  0  0  0  0  0  0  0
   14.2465    0.1206    0.5747 C   0  0  0  0  0  0  0  0  0  0  0  0
   15.6110    0.0240    0.8148 C   0  0  0  0  0  0  0  0  0  0  0  0
   16.4386   -0.8127    0.0508 C   0  0  0  0  0  0  0  0  0  0  0  0
   17.8183   -0.9086    0.2957 C   0  0  0  0  0  0  0  0  0  0  0  0
   19.6884   -1.8135   -0.2783 H   0  0  0  0  0  0  0  0  0  0  0  0
   18.6812   -3.1542   -2.1060 H   0  0  0  0  0  0  0  0  0  0  0  0
   16.2639   -3.0106   -2.5634 H   0  0  0  0  0  0  0  0  0  0  0  0
   14.0262   -2.0513   -2.0212 H   0  0  0  0  0  0  0  0  0  0  0  0
    9.8192   -0.2597   -1.0177 H   0  0  0  0  0  0  0  0  0  0  0  0
    7.5878    0.6847   -0.4984 H   0  0  0  0  0  0  0  0  0  0  0  0
    5.7042    4.3351    0.6015 H   0  0  0  0  0  0  0  0  0  0  0  0
    3.2966    4.4669    0.1791 H   0  0  0  0  0  0  0  0  0  0  0  0
    1.1080    3.3559   -0.0996 H   0  0  0  0  0  0  0  0  0  0  0  0
   -1.0655    2.2475   -0.3739 H   0  0  0  0  0  0  0  0  0  0  0  0
   -3.2374    1.1383   -0.6482 H   0  0  0  0  0  0  0  0  0  0  0  0
   -5.4070    0.0272   -0.9360 H   0  0  0  0  0  0  0  0  0  0  0  0
   -7.5902   -0.6618    0.5581 H   0  0  0  0  0  0  0  0  0  0  0  0
   -9.8414    0.2312    1.0950 H   0  0  0  0  0  0  0  0  0  0  0  0
  -14.0855    1.9167    2.1336 H   0  0  0  0  0  0  0  0  0  0  0  0
  -16.3425    2.8183    2.6943 H   0  0  0  0  0  0  0  0  0  0  0  0
  -18.7600    2.9336    2.2290 H   0  0  0  0  0  0  0  0  0  0  0  0
  -19.7342    1.6344    0.3541 H   0  0  0  0  0  0  0  0  0  0  0  0
  -18.2907    0.2191   -1.0564 H   0  0  0  0  0  0  0  0  0  0  0  0
  -16.0268   -0.6721   -1.6025 H   0  0  0  0  0  0  0  0  0  0  0  0
  -11.7835   -2.3559   -2.6394 H   0  0  0  0  0  0  0  0  0  0  0  0
   -9.5269   -3.2575   -3.1982 H   0  0  0  0  0  0  0  0  0  0  0  0
   -7.1236   -3.3752   -2.7495 H   0  0  0  0  0  0  0  0  0  0  0  0
   -5.6753   -4.2529   -0.5787 H   0  0  0  0  0  0  0  0  0  0  0  0
   -3.2679   -4.3773   -0.1494 H   0  0  0  0  0  0  0  0  0  0  0  0
   -1.0854   -3.2614    0.1337 H   0  0  0  0  0  0  0  0  0  0  0  0
    1.0825   -2.1526    0.4101 H   0  0  0  0  0  0  0  0  0  0  0  0
    3.2509   -1.0473    0.6857 H   0  0  0  0  0  0  0  0  0  0  0  0
    5.4207    0.0570    0.9710 H   0  0  0  0  0  0  0  0  0  0  0  0
    7.1789    3.5001    2.7308 H   0  0  0  0  0  0  0  0  0  0  0  0
    9.5830    3.3630    3.1679 H   0  0  0  0  0  0  0  0  0  0  0  0
   11.8244    2.4093    2.6245 H   0  0  0  0  0  0  0  0  0  0  0  0
   16.0331    0.6204    1.6209 H   0  0  0  0  0  0  0  0  0  0  0  0
   18.2784   -0.3283    1.0929 H   0  0  0  0  0  0  0  0  0  0  0  0
  1  2  4  0
  2  3  4  0
  3  4  4  0
  4  5  4  0
  5  6  4  0
  6  7  4  0
  7  8  4  0
  8  9  4  0
  9 10  4  0
 10 11  4  0
 11 12  4  0
 12 13  1  0
 13 14  4  0
 14 15  4  0
 15 16  4  0
 16 17  4  0
 17 18  4  0
 18 19  4  0
 19 20  4  0
 20 21  4  0
 21 22  4  0
 22 23  4  0
 23 24  4  0
 24 25  1  0
 25 26  4  0
 26 27  4  0
 27 28  4  0
 28 29  4  0
 29 30  4  0
 30 31  4  0
 31 32  4  0
 32 33  4  0
 33 34  4  0
 34 35  4  0
 35 36  4  0
 36 37  4  0
 37 38  4  0
 38 39  4  0
 39 40  4  0
 40 41  4  0
 41 42  4  0
 42 43  4  0
 43 44  4  0
 44 45  4  0
 45 46  4  0
 24 47  4  0
 47 48  4  0
 48 49  4  0
 49 50  4  0
 50 51  4  0
 51 52  4  0
 52 53  4  0
 53 54  4  0
 54 55  4  0
 55 56  4  0
 12 57  4  0
 57 58  4  0
 58 59  4  0
 59 60  4  0
 60 61  4  0
 61 62  4  0
 62 63  4  0
 63 64  4  0
 64 65  4  0
 65 66  4  0
 66  1  4  0
 65  4  4  0
 63  6  4  0
 61  8  4  0
 59 10  4  0
 56 13  4  0
 55 16  4  0
 53 18  4  0
 51 20  4  0
 49 22  4  0
 46 25  4  0
 44 27  4  0
 42 29  4  0
 40 31  4  0
 38 33  4  0
  1 67  1  0
  2 68  1  0
  3 69  1  0
  5 70  1  0
  9 71  1  0
 11 72  1  0
 14 73  1  0
 15 74  1  0
 17 75  1  0
 19 76  1  0
 21 77  1  0
 23 78  1  0
 26 79  1  0
 28 80  1  0
 32 81  1  0
 34 82  1  0
 35 83  1  0
 36 84  1  0
 37 85  1  0
 39 86  1  0
 43 87  1  0
 45 88  1  0
 46 89  1  0
 47 90  1  0
 48 91  1  0
 50 92  1  0
 52 93  1  0
 54 94  1  0
 56 95  1  0
 57 96  1  0
 58 97  1  0
 60 98  1  0
 64 99  1  0
 66100  1  0
M  END
