
     RDKit          3D

102114  0  0  0  0  0  0  0  0999 V2000
   -9.9393    3.0792   -0.0224 C   0  0  0  0  0  0  0  0  0  0  0  0
  -10.6006    1.8601    0.2286 C   0  0  0  0  0  0  0  0  0  0  0  0
   -9.7321    0.7794    0.0917 C   0  0  0  0  0  0  0  0  0  0  0  0
  -10.0347   -0.5511    0.2692 C   0  0  0  0  0  0  0  0  0  0  0  0
  -11.2003   -1.3285    0.6720 C   0  0  0  0  0  0  0  0  0  0  0  0
  -11.4895   -2.5494    0.0450 C   0  0  0  0  0  0  0  0  0  0  0  0
  -12.6060   -3.3005    0.4214 C   0  0  0  0  0  0  0  0  0  0  0  0
  -13.4447   -2.8422    1.4348 C   0  0  0  0  0  0  0  0  0  0  0  0
  -13.1647   -1.6369    2.0750 C   0  0  0  0  0  0  0  0  0  0  0  0
  -12.0477   -0.8859    1.6970 C   0  0  0  0  0  0  0  0  0  0  0  0
   -8.9121   -1.2911   -0.0049 O   0  0  0  0  0  0  0  0  0  0  0  0
   -7.8909   -0.4393   -0.3514 C   0  0  0  0  0  0  0  0  0  0  0  0
   -6.6580   -1.1249   -0.7080 C   0  0  0  0  0  0  0  0  0  0  0  0
   -6.0417   -0.9072   -1.9463 C   0  0  0  0  0  0  0  0  0  0  0  0
   -4.8444   -1.5517   -2.2669 C   0  0  0  0  0  0  0  0  0  0  0  0
   -4.2624   -2.4345   -1.3592 C   0  0  0  0  0  0  0  0  0  0  0  0
   -4.8801   -2.6800   -0.1344 C   0  0  0  0  0  0  0  0  0  0  0  0
   -6.0736   -2.0303    0.1883 C   0  0  0  0  0  0  0  0  0  0  0  0
   -8.3428    0.8636   -0.2763 C   0  0  0  0  0  0  0  0  0  0  0  0
   -7.6644    2.0753   -0.5104 C   0  0  0  0  0  0  0  0  0  0  0  0
   -6.2522    2.2286   -0.8319 C   0  0  0  0  0  0  0  0  0  0  0  0
   -5.8557    2.7965   -2.0497 C   0  0  0  0  0  0  0  0  0  0  0  0
   -4.5024    2.9428   -2.3666 C   0  0  0  0  0  0  0  0  0  0  0  0
   -3.5077    2.5296   -1.4687 C   0  0  0  0  0  0  0  0  0  0  0  0
   -2.1432    2.6603   -1.7754 C   0  0  0  0  0  0  0  0  0  0  0  0
   -1.1470    2.2462   -0.8753 C   0  0  0  0  0  0  0  0  0  0  0  0
    0.2182    2.3766   -1.1815 C   0  0  0  0  0  0  0  0  0  0  0  0
    1.2148    1.9628   -0.2815 C   0  0  0  0  0  0  0  0  0  0  0  0
    2.5798    2.0912   -0.5893 C   0  0  0  0  0  0  0  0  0  0  0  0
    3.5760    1.6754    0.3095 C   0  0  0  0  0  0  0  0  0  0  0  0
    4.9419    1.7928   -0.0030 C   0  0  0  0  0  0  0  0  0  0  0  0
    5.9388    1.3566    0.8847 C   0  0  0  0  0  0  0  0  0  0  0  0
    7.3456    1.4671    0.5301 C   0  0  0  0  0  0  0  0  0  0  0  0
    8.0188    2.7140    0.4036 C   0  0  0  0  0  0  0  0  0  0  0  0
    9.4138    2.8619    0.1002 C   0  0  0  0  0  0  0  0  0  0  0  0
   10.2929    1.7803   -0.1147 C   0  0  0  0  0  0  0  0  0  0  0  0
    9.6262    0.5612   -0.0106 C   0  0  0  0  0  0  0  0  0  0  0  0
   10.1716   -0.6956   -0.1435 C   0  0  0  0  0  0  0  0  0  0  0  0
   11.4820   -1.2544   -0.4550 C   0  0  0  0  0  0  0  0  0  0  0  0
   12.3049   -0.6731   -1.4296 C   0  0  0  0  0  0  0  0  0  0  0  0
   13.5627   -1.2117   -1.7173 C   0  0  0  0  0  0  0  0  0  0  0  0
   14.0107   -2.3418   -1.0369 C   0  0  0  0  0  0  0  0  0  0  0  0
   13.1998   -2.9377   -0.0736 C   0  0  0  0  0  0  0  0  0  0  0  0
   11.9426   -2.3987    0.2127 C   0  0  0  0  0  0  0  0  0  0  0  0
    9.1823   -1.6231    0.0730 O   0  0  0  0  0  0  0  0  0  0  0  0
    7.9996   -0.9636    0.3074 C   0  0  0  0  0  0  0  0  0  0  0  0
    6.8603   -1.8492    0.4908 C   0  0  0  0  0  0  0  0  0  0  0  0
    5.7323   -1.7515   -0.3331 C   0  0  0  0  0  0  0  0  0  0  0  0
    4.6312   -2.5875   -0.1326 C   0  0  0  0  0  0  0  0  0  0  0  0
    4.6557   -3.5411    0.8831 C   0  0  0  0  0  0  0  0  0  0  0  0
    5.7824   -3.6643    1.6945 C   0  0  0  0  0  0  0  0  0  0  0  0
    6.8807   -2.8240    1.4973 C   0  0  0  0  0  0  0  0  0  0  0  0
    8.2298    0.3975    0.2945 C   0  0  0  0  0  0  0  0  0  0  0  0
    5.5438    0.8288    2.1198 C   0  0  0  0  0  0  0  0  0  0  0  0
    4.1908    0.7078    2.4470 C   0  0  0  0  0  0  0  0  0  0  0  0
    3.1968    1.1214    1.5488 C   0  0  0  0  0  0  0  0  0  0  0  0
    1.8326    0.9932    1.8566 C   0  0  0  0  0  0  0  0  0  0  0  0
    0.8369    1.4057    0.9555 C   0  0  0  0  0  0  0  0  0  0  0  0
   -0.5280    1.2743    1.2610 C   0  0  0  0  0  0  0  0  0  0  0  0
   -1.5250    1.6875    0.3610 C   0  0  0  0  0  0  0  0  0  0  0  0
   -2.8902    1.5557    0.6670 C   0  0  0  0  0  0  0  0  0  0  0  0
   -3.8866    1.9707   -0.2319 C   0  0  0  0  0  0  0  0  0  0  0  0
   -5.2530    1.8367    0.0736 C   0  0  0  0  0  0  0  0  0  0  0  0
   -8.5499    3.1812   -0.3677 C   0  0  0  0  0  0  0  0  0  0  0  0
  -10.5133    4.0036    0.0539 H   0  0  0  0  0  0  0  0  0  0  0  0
  -11.6502    1.8028    0.4800 H   0  0  0  0  0  0  0  0  0  0  0  0
  -10.8427   -2.9217   -0.7474 H   0  0  0  0  0  0  0  0  0  0  0  0
  -12.8160   -4.2436   -0.0763 H   0  0  0  0  0  0  0  0  0  0  0  0
  -14.3116   -3.4277    1.7301 H   0  0  0  0  0  0  0  0  0  0  0  0
  -13.8107   -1.2834    2.8744 H   0  0  0  0  0  0  0  0  0  0  0  0
  -11.8360    0.0391    2.2275 H   0  0  0  0  0  0  0  0  0  0  0  0
   -6.4858   -0.2267   -2.6684 H   0  0  0  0  0  0  0  0  0  0  0  0
   -4.3659   -1.3604   -3.2236 H   0  0  0  0  0  0  0  0  0  0  0  0
   -3.3289   -2.9321   -1.6083 H   0  0  0  0  0  0  0  0  0  0  0  0
   -4.4347   -3.3762    0.5708 H   0  0  0  0  0  0  0  0  0  0  0  0
   -6.5472   -2.2287    1.1475 H   0  0  0  0  0  0  0  0  0  0  0  0
   -6.6038    3.1175   -2.7719 H   0  0  0  0  0  0  0  0  0  0  0  0
   -4.2328    3.3788   -3.3257 H   0  0  0  0  0  0  0  0  0  0  0  0
   -1.8521    3.0913   -2.7314 H   0  0  0  0  0  0  0  0  0  0  0  0
    0.5112    2.8067   -2.1375 H   0  0  0  0  0  0  0  0  0  0  0  0
    2.8721    2.5194   -1.5465 H   0  0  0  0  0  0  0  0  0  0  0  0
    5.2380    2.2116   -0.9636 H   0  0  0  0  0  0  0  0  0  0  0  0
    7.4448    3.6284    0.5680 H   0  0  0  0  0  0  0  0  0  0  0  0
    9.8171    3.8739    0.0459 H   0  0  0  0  0  0  0  0  0  0  0  0
   11.3461    1.9126   -0.3177 H   0  0  0  0  0  0  0  0  0  0  0  0
   11.9671    0.1943   -1.9912 H   0  0  0  0  0  0  0  0  0  0  0  0
   14.1881   -0.7524   -2.4785 H   0  0  0  0  0  0  0  0  0  0  0  0
   14.9874   -2.7624   -1.2623 H   0  0  0  0  0  0  0  0  0  0  0  0
   13.5420   -3.8238    0.4546 H   0  0  0  0  0  0  0  0  0  0  0  0
   11.3204   -2.8771    0.9665 H   0  0  0  0  0  0  0  0  0  0  0  0
    5.6997   -1.0169   -1.1339 H   0  0  0  0  0  0  0  0  0  0  0  0
    3.7551   -2.4899   -0.7684 H   0  0  0  0  0  0  0  0  0  0  0  0
    3.7980   -4.1902    1.0388 H   0  0  0  0  0  0  0  0  0  0  0  0
    5.8074   -4.4132    2.4815 H   0  0  0  0  0  0  0  0  0  0  0  0
    7.7543   -2.9273    2.1370 H   0  0  0  0  0  0  0  0  0  0  0  0
    6.2920    0.4911    2.8343 H   0  0  0  0  0  0  0  0  0  0  0  0
    3.9219    0.2769    3.4087 H   0  0  0  0  0  0  0  0  0  0  0  0
    1.5424    0.5630    2.8135 H   0  0  0  0  0  0  0  0  0  0  0  0
   -0.8201    0.8422    2.2167 H   0  0  0  0  0  0  0  0  0  0  0  0
   -3.1834    1.1186    1.6198 H   0  0  0  0  0  0  0  0  0  0  0  0
   -5.5468    1.4056    1.0297 H   0  0  0  0  0  0  0  0  0  0  0  0
   -8.1484    4.1855   -0.5189 H   0  0  0  0  0  0  0  0  0  0  0  0
  1  2  4  0
  2  3  4  0
  3  4  4  0
  4  5  1  0
  5  6  4  0
  6  7  4  0
  7  8  4  0
  8  9  4  0
  9 10  4  0
  4 11  4  0
 11 12  4  0
 12 13  1  0
 13 14  4  0
 14 15  4  0
 15 16  4  0
 16 17  4  0
 17 18  4  0
 12 19  4  0
 19 20  4  0
 20 21  1  0
 21 22  4  0
 22 23  4  0
 23 24  4  0
 24 25  4  0
 25 26  4  0
 26 27  4  0
 27 28  4  0
 28 29  4  0
 29 30  4  0
 30 31  4  0
 31 32  4  0
 32 33  1  0
 33 34  4  0
 34 35  4  0
 35 36  4  0
 36 37  4  0
 37 38  4  0
 38 39  1  0
 39 40  4  0
 40 41  4  0
 41 42  4  0
 42 43  4  0
 43 44  4  0
 38 45  4  0
 45 46  4  0
 46 47  1  0
 47 48  4  0
 48 49  4  0
 49 50  4  0
 50 51  4  0
 51 52  4  0
 46 53  4  0
 32 54  4  0
 54 55  4  0
 55 56  4  0
 56 57  4  0
 57 58  4  0
 58 59  4  0
 59 60  4  0
 60 61  4  0
 61 62  4  0
 62 63  4  0
 20 64  4  0
 64  1  4  0
 19  3  4  0
 63 21  4  0
 10  5  4  0
 18 13  4  0
 62 24  4  0
 60 26  4  0
 58 28  4  0
 56 30  4  0
 53 33  4  0
 53 37  4  0
 44 39  4  0
 52 47  4  0
  1 65  1  0
  2 66  1  0
  6 67  1  0
  7 68  1  0
  8 69  1  0
  9 70  1  0
 10 71  1  0
 14 72  1  0
 15 73  1  0
 16 74  1  0
 17 75  1  0
 18 76  1  0
 22 77  1  0
 23 78  1  0
 25 79  1  0
 27 80  1  0
 29 81  1  0
 31 82  1  0
 34 83  1  0
 35 84  1  0
 36 85  1  0
 40 86  1  0
 41 87  1  0
 42 88  1  0
 43 89  1  0
 44 90  1  0
 48 91  1  0
 49 92  1  0
 50 93  1  0
 51 94  1  0
 52 95  1  0
 54 96  1  0
 55 97  1  0
 57 98  1  0
 59 99  1  0
 61100  1  0
 63101  1  0
 64102  1  0
M  END
