
     RDKit          3D

102114  0  0  0  0  0  0  0  0999 V2000
   -9.6263   -2.4903   -0.7501 C   0  0  0  0  0  0  0  0  0  0  0  0
   -8.2297   -2.3800   -0.9617 C   0  0  0  0  0  0  0  0  0  0  0  0
   -7.4429   -1.1776   -0.7585 C   0  0  0  0  0  0  0  0  0  0  0  0
   -5.9913   -1.2203   -1.0206 C   0  0  0  0  0  0  0  0  0  0  0  0
   -5.4982   -1.5781   -2.2823 C   0  0  0  0  0  0  0  0  0  0  0  0
   -4.1235   -1.6125   -2.5334 C   0  0  0  0  0  0  0  0  0  0  0  0
   -3.2023   -1.2895   -1.5265 C   0  0  0  0  0  0  0  0  0  0  0  0
   -1.8179   -1.3179   -1.7625 C   0  0  0  0  0  0  0  0  0  0  0  0
   -0.8959   -0.9939   -0.7529 C   0  0  0  0  0  0  0  0  0  0  0  0
    0.4891   -1.0209   -0.9882 C   0  0  0  0  0  0  0  0  0  0  0  0
    1.4112   -0.6963    0.0210 C   0  0  0  0  0  0  0  0  0  0  0  0
    2.7961   -0.7221   -0.2156 C   0  0  0  0  0  0  0  0  0  0  0  0
    3.7186   -0.3966    0.7928 C   0  0  0  0  0  0  0  0  0  0  0  0
    5.1051   -0.4207    0.5556 C   0  0  0  0  0  0  0  0  0  0  0  0
    6.0310   -0.0971    1.5615 C   0  0  0  0  0  0  0  0  0  0  0  0
    7.4814   -0.1224    1.2942 C   0  0  0  0  0  0  0  0  0  0  0  0
    8.0083    0.7129    0.2697 C   0  0  0  0  0  0  0  0  0  0  0  0
    9.3905    0.5787    0.1463 C   0  0  0  0  0  0  0  0  0  0  0  0
   10.2245    1.2112   -0.7476 C   0  0  0  0  0  0  0  0  0  0  0  0
   10.0871    2.2152   -1.7960 C   0  0  0  0  0  0  0  0  0  0  0  0
   10.8386    2.1167   -2.9765 C   0  0  0  0  0  0  0  0  0  0  0  0
   10.7096    3.0705   -3.9895 C   0  0  0  0  0  0  0  0  0  0  0  0
    9.8299    4.1388   -3.8321 C   0  0  0  0  0  0  0  0  0  0  0  0
    9.0847    4.2570   -2.6611 C   0  0  0  0  0  0  0  0  0  0  0  0
    9.2149    3.3024   -1.6483 C   0  0  0  0  0  0  0  0  0  0  0  0
   11.5044    0.7421   -0.5555 O   0  0  0  0  0  0  0  0  0  0  0  0
   11.4951   -0.1635    0.4812 C   0  0  0  0  0  0  0  0  0  0  0  0
   12.7983   -0.7199    0.8240 C   0  0  0  0  0  0  0  0  0  0  0  0
   13.1623   -0.9457    2.1586 C   0  0  0  0  0  0  0  0  0  0  0  0
   14.4130   -1.4832    2.4770 C   0  0  0  0  0  0  0  0  0  0  0  0
   15.3161   -1.7979    1.4640 C   0  0  0  0  0  0  0  0  0  0  0  0
   14.9732   -1.5699    0.1335 C   0  0  0  0  0  0  0  0  0  0  0  0
   13.7233   -1.0319   -0.1834 C   0  0  0  0  0  0  0  0  0  0  0  0
   10.2012   -0.2962    0.9321 C   0  0  0  0  0  0  0  0  0  0  0  0
    9.7279   -1.1389    1.9324 C   0  0  0  0  0  0  0  0  0  0  0  0
    8.3253   -1.0038    2.0793 C   0  0  0  0  0  0  0  0  0  0  0  0
    5.5384    0.2555    2.8246 C   0  0  0  0  0  0  0  0  0  0  0  0
    4.1638    0.2853    3.0768 C   0  0  0  0  0  0  0  0  0  0  0  0
    3.2429   -0.0385    2.0701 C   0  0  0  0  0  0  0  0  0  0  0  0
    1.8585   -0.0131    2.3072 C   0  0  0  0  0  0  0  0  0  0  0  0
    0.9367   -0.3371    1.2974 C   0  0  0  0  0  0  0  0  0  0  0  0
   -0.4482   -0.3104    1.5328 C   0  0  0  0  0  0  0  0  0  0  0  0
   -1.3704   -0.6339    0.5233 C   0  0  0  0  0  0  0  0  0  0  0  0
   -2.7554   -0.6058    0.7591 C   0  0  0  0  0  0  0  0  0  0  0  0
   -3.6779   -0.9281   -0.2503 C   0  0  0  0  0  0  0  0  0  0  0  0
   -5.0645   -0.8981   -0.0147 C   0  0  0  0  0  0  0  0  0  0  0  0
   -8.0276    0.0396   -0.3092 C   0  0  0  0  0  0  0  0  0  0  0  0
   -9.4032   -0.0814   -0.1177 C   0  0  0  0  0  0  0  0  0  0  0  0
  -10.2818    0.8795    0.3288 C   0  0  0  0  0  0  0  0  0  0  0  0
  -10.2111    2.2859    0.7055 C   0  0  0  0  0  0  0  0  0  0  0  0
   -9.3983    3.1850    0.0018 C   0  0  0  0  0  0  0  0  0  0  0  0
   -9.3336    4.5310    0.3737 C   0  0  0  0  0  0  0  0  0  0  0  0
  -10.0856    4.9949    1.4508 C   0  0  0  0  0  0  0  0  0  0  0  0
  -10.9064    4.1159    2.1535 C   0  0  0  0  0  0  0  0  0  0  0  0
  -10.9699    2.7708    1.7810 C   0  0  0  0  0  0  0  0  0  0  0  0
  -11.5342    0.3158    0.4199 O   0  0  0  0  0  0  0  0  0  0  0  0
  -11.4635   -0.9938    0.0018 C   0  0  0  0  0  0  0  0  0  0  0  0
  -12.7334   -1.7097    0.0051 C   0  0  0  0  0  0  0  0  0  0  0  0
  -13.0578   -2.6138   -1.0155 C   0  0  0  0  0  0  0  0  0  0  0  0
  -14.2778   -3.2964   -1.0041 C   0  0  0  0  0  0  0  0  0  0  0  0
  -15.1900   -3.0801    0.0264 C   0  0  0  0  0  0  0  0  0  0  0  0
  -14.8863   -2.1774    1.0427 C   0  0  0  0  0  0  0  0  0  0  0  0
  -13.6668   -1.4953    1.0301 C   0  0  0  0  0  0  0  0  0  0  0  0
  -10.1568   -1.2763   -0.3266 C   0  0  0  0  0  0  0  0  0  0  0  0
  -10.1715   -3.4127   -0.8883 H   0  0  0  0  0  0  0  0  0  0  0  0
   -7.7060   -3.2823   -1.2864 H   0  0  0  0  0  0  0  0  0  0  0  0
   -6.1869   -1.8233   -3.0886 H   0  0  0  0  0  0  0  0  0  0  0  0
   -3.7788   -1.8917   -3.5266 H   0  0  0  0  0  0  0  0  0  0  0  0
   -1.4518   -1.5969   -2.7490 H   0  0  0  0  0  0  0  0  0  0  0  0
    0.8560   -1.2990   -1.9747 H   0  0  0  0  0  0  0  0  0  0  0  0
    3.1628   -1.0000   -1.2023 H   0  0  0  0  0  0  0  0  0  0  0  0
    5.4736   -0.7060   -0.4289 H   0  0  0  0  0  0  0  0  0  0  0  0
    7.3900    1.3629   -0.3342 H   0  0  0  0  0  0  0  0  0  0  0  0
   11.5306    1.2884   -3.1147 H   0  0  0  0  0  0  0  0  0  0  0  0
   11.2982    2.9782   -4.8985 H   0  0  0  0  0  0  0  0  0  0  0  0
    9.7300    4.8825   -4.6184 H   0  0  0  0  0  0  0  0  0  0  0  0
    8.4066    5.0965   -2.5308 H   0  0  0  0  0  0  0  0  0  0  0  0
    8.6409    3.4310   -0.7340 H   0  0  0  0  0  0  0  0  0  0  0  0
   12.4842   -0.6860    2.9676 H   0  0  0  0  0  0  0  0  0  0  0  0
   14.6844   -1.6490    3.5165 H   0  0  0  0  0  0  0  0  0  0  0  0
   16.2894   -2.2136    1.7116 H   0  0  0  0  0  0  0  0  0  0  0  0
   15.6769   -1.8070   -0.6600 H   0  0  0  0  0  0  0  0  0  0  0  0
   13.4710   -0.8590   -1.2276 H   0  0  0  0  0  0  0  0  0  0  0  0
   10.3174   -1.8279    2.5197 H   0  0  0  0  0  0  0  0  0  0  0  0
    7.8438   -1.6309    2.8335 H   0  0  0  0  0  0  0  0  0  0  0  0
    6.2270    0.5227    3.6238 H   0  0  0  0  0  0  0  0  0  0  0  0
    3.8188    0.5680    4.0689 H   0  0  0  0  0  0  0  0  0  0  0  0
    1.4923    0.2637    3.2943 H   0  0  0  0  0  0  0  0  0  0  0  0
   -0.8153   -0.0327    2.5194 H   0  0  0  0  0  0  0  0  0  0  0  0
   -3.1221   -0.3275    1.7457 H   0  0  0  0  0  0  0  0  0  0  0  0
   -5.4312   -0.6274    0.9746 H   0  0  0  0  0  0  0  0  0  0  0  0
   -7.4533    0.9400   -0.1382 H   0  0  0  0  0  0  0  0  0  0  0  0
   -8.8210    2.8529   -0.8575 H   0  0  0  0  0  0  0  0  0  0  0  0
   -8.7008    5.2173   -0.1832 H   0  0  0  0  0  0  0  0  0  0  0  0
  -10.0373    6.0419    1.7381 H   0  0  0  0  0  0  0  0  0  0  0  0
  -11.5004    4.4740    2.9901 H   0  0  0  0  0  0  0  0  0  0  0  0
  -11.6164    2.0970    2.3396 H   0  0  0  0  0  0  0  0  0  0  0  0
  -12.3736   -2.7811   -1.8434 H   0  0  0  0  0  0  0  0  0  0  0  0
  -14.5172   -3.9909   -1.8050 H   0  0  0  0  0  0  0  0  0  0  0  0
  -16.1398   -3.6086    0.0336 H   0  0  0  0  0  0  0  0  0  0  0  0
  -15.5974   -1.9989    1.8451 H   0  0  0  0  0  0  0  0  0  0  0  0
  -13.4454   -0.7924    1.8308 H   0  0  0  0  0  0  0  0  0  0  0  0
  1  2  4  0
  2  3  4  0
  3  4  1  0
  4  5  4  0
  5  6  4  0
  6  7  4  0
  7  8  4  0
  8  9  4  0
  9 10  4  0
 10 11  4  0
 11 12  4  0
 12 13  4  0
 13 14  4  0
 14 15  4  0
 15 16  1  0
 16 17  4  0
 17 18  4  0
 18 19  4  0
 19 20  1  0
 20 21  4  0
 21 22  4  0
 22 23  4  0
 23 24  4  0
 24 25  4  0
 19 26  4  0
 26 27  4  0
 27 28  1  0
 28 29  4  0
 29 30  4  0
 30 31  4  0
 31 32  4  0
 32 33  4  0
 27 34  4  0
 34 35  4  0
 35 36  4  0
 15 37  4  0
 37 38  4  0
 38 39  4  0
 39 40  4  0
 40 41  4  0
 41 42  4  0
 42 43  4  0
 43 44  4  0
 44 45  4  0
 45 46  4  0
  3 47  4  0
 47 48  4  0
 48 49  4  0
 49 50  1  0
 50 51  4  0
 51 52  4  0
 52 53  4  0
 53 54  4  0
 54 55  4  0
 49 56  4  0
 56 57  4  0
 57 58  1  0
 58 59  4  0
 59 60  4  0
 60 61  4  0
 61 62  4  0
 62 63  4  0
 57 64  4  0
 64  1  4  0
 46  4  4  0
 64 48  4  0
 45  7  4  0
 55 50  4  0
 63 58  4  0
 43  9  4  0
 41 11  4  0
 39 13  4  0
 36 16  4  0
 34 18  4  0
 25 20  4  0
 33 28  4  0
  1 65  1  0
  2 66  1  0
  5 67  1  0
  6 68  1  0
  8 69  1  0
 10 70  1  0
 12 71  1  0
 14 72  1  0
 17 73  1  0
 21 74  1  0
 22 75  1  0
 23 76  1  0
 24 77  1  0
 25 78  1  0
 29 79  1  0
 30 80  1  0
 31 81  1  0
 32 82  1  0
 33 83  1  0
 35 84  1  0
 36 85  1  0
 37 86  1  0
 38 87  1  0
 40 88  1  0
 42 89  1  0
 44 90  1  0
 46 91  1  0
 47 92  1  0
 51 93  1  0
 52 94  1  0
 53 95  1  0
 54 96  1  0
 55 97  1  0
 59 98  1  0
 60 99  1  0
 61100  1  0
 62101  1  0
 63102  1  0
M  END
