
     RDKit          3D

 96110  0  0  0  0  0  0  0  0999 V2000
   -9.1900    5.4933    1.3759 C   0  0  0  0  0  0  0  0  0  0  0  0
   -7.8413    5.3448    1.6717 C   0  0  0  0  0  0  0  0  0  0  0  0
   -7.2451    4.0895    1.5494 C   0  0  0  0  0  0  0  0  0  0  0  0
   -7.9749    2.9811    1.1372 C   0  0  0  0  0  0  0  0  0  0  0  0
   -7.3714    1.7854    1.0292 N   0  0  0  0  0  0  0  0  0  0  0  0
   -8.1005    0.7166    0.6300 C   0  0  0  0  0  0  0  0  0  0  0  0
   -9.4670    0.8873    0.3384 C   0  0  0  0  0  0  0  0  0  0  0  0
  -10.0786    2.0802    0.4388 N   0  0  0  0  0  0  0  0  0  0  0  0
   -9.3414    3.1302    0.8383 C   0  0  0  0  0  0  0  0  0  0  0  0
   -9.9284    4.3841    0.9614 C   0  0  0  0  0  0  0  0  0  0  0  0
  -10.2189   -0.1973   -0.0632 C   0  0  0  0  0  0  0  0  0  0  0  0
   -9.6773   -1.4595   -0.1916 C   0  0  0  0  0  0  0  0  0  0  0  0
  -10.4859   -2.4572   -0.5891 N   0  0  0  0  0  0  0  0  0  0  0  0
   -9.9514   -3.6832   -0.7175 C   0  0  0  0  0  0  0  0  0  0  0  0
  -10.7459   -4.7483   -1.1267 C   0  0  0  0  0  0  0  0  0  0  0  0
  -10.2196   -6.0327   -1.2700 C   0  0  0  0  0  0  0  0  0  0  0  0
   -8.8757   -6.2551   -0.9997 C   0  0  0  0  0  0  0  0  0  0  0  0
   -8.0725   -5.1907   -0.5883 C   0  0  0  0  0  0  0  0  0  0  0  0
   -8.5903   -3.9092   -0.4426 C   0  0  0  0  0  0  0  0  0  0  0  0
   -7.7901   -2.9059   -0.0424 N   0  0  0  0  0  0  0  0  0  0  0  0
   -8.3134   -1.6643    0.0919 C   0  0  0  0  0  0  0  0  0  0  0  0
   -7.5284   -0.5667    0.5036 C   0  0  0  0  0  0  0  0  0  0  0  0
   -6.0892   -0.7613    0.8090 C   0  0  0  0  0  0  0  0  0  0  0  0
   -5.6807   -1.5705    1.8784 C   0  0  0  0  0  0  0  0  0  0  0  0
   -4.3252   -1.7455    2.1707 C   0  0  0  0  0  0  0  0  0  0  0  0
   -3.3381   -1.1139    1.4008 C   0  0  0  0  0  0  0  0  0  0  0  0
   -1.9722   -1.2776    1.6832 C   0  0  0  0  0  0  0  0  0  0  0  0
   -0.9842   -0.6425    0.9125 C   0  0  0  0  0  0  0  0  0  0  0  0
    0.3819   -0.8067    1.1946 C   0  0  0  0  0  0  0  0  0  0  0  0
    1.3716   -0.1707    0.4261 C   0  0  0  0  0  0  0  0  0  0  0  0
    2.7385   -0.3355    0.7075 C   0  0  0  0  0  0  0  0  0  0  0  0
    3.7276    0.3013   -0.0607 C   0  0  0  0  0  0  0  0  0  0  0  0
    5.0960    0.1337    0.2189 C   0  0  0  0  0  0  0  0  0  0  0  0
    6.0902    0.7651   -0.5492 C   0  0  0  0  0  0  0  0  0  0  0  0
    7.5292    0.5663   -0.2473 C   0  0  0  0  0  0  0  0  0  0  0  0
    8.3094    1.6548    0.1962 C   0  0  0  0  0  0  0  0  0  0  0  0
    7.7817    2.8909    0.3638 N   0  0  0  0  0  0  0  0  0  0  0  0
    8.5776    3.8859    0.7929 C   0  0  0  0  0  0  0  0  0  0  0  0
    8.0561    5.1618    0.9725 C   0  0  0  0  0  0  0  0  0  0  0  0
    8.8554    6.2170    1.4144 C   0  0  0  0  0  0  0  0  0  0  0  0
   10.1994    5.9915    1.6810 C   0  0  0  0  0  0  0  0  0  0  0  0
   10.7296    4.7127    1.5033 C   0  0  0  0  0  0  0  0  0  0  0  0
    9.9390    3.6567    1.0637 C   0  0  0  0  0  0  0  0  0  0  0  0
   10.4779    2.4361    0.9022 N   0  0  0  0  0  0  0  0  0  0  0  0
    9.6737    1.4466    0.4757 C   0  0  0  0  0  0  0  0  0  0  0  0
   10.2194    0.1896    0.3121 C   0  0  0  0  0  0  0  0  0  0  0  0
    9.4718   -0.8864   -0.1210 C   0  0  0  0  0  0  0  0  0  0  0  0
   10.0865   -2.0748   -0.2545 N   0  0  0  0  0  0  0  0  0  0  0  0
    9.3527   -3.1159   -0.6841 C   0  0  0  0  0  0  0  0  0  0  0  0
    9.9428   -4.3650   -0.8416 C   0  0  0  0  0  0  0  0  0  0  0  0
    9.2077   -5.4644   -1.2876 C   0  0  0  0  0  0  0  0  0  0  0  0
    7.8591   -5.3110   -1.5813 C   0  0  0  0  0  0  0  0  0  0  0  0
    7.2598   -4.0605   -1.4249 C   0  0  0  0  0  0  0  0  0  0  0  0
    7.9861   -2.9620   -0.9805 C   0  0  0  0  0  0  0  0  0  0  0  0
    7.3794   -1.7710   -0.8394 N   0  0  0  0  0  0  0  0  0  0  0  0
    8.1050   -0.7116   -0.4092 C   0  0  0  0  0  0  0  0  0  0  0  0
    5.6821    1.5816   -1.6132 C   0  0  0  0  0  0  0  0  0  0  0  0
    4.3265    1.7594   -1.9035 C   0  0  0  0  0  0  0  0  0  0  0  0
    3.3392    1.1242   -1.1366 C   0  0  0  0  0  0  0  0  0  0  0  0
    1.9730    1.2891   -1.4184 C   0  0  0  0  0  0  0  0  0  0  0  0
    0.9848    0.6504   -0.6506 C   0  0  0  0  0  0  0  0  0  0  0  0
   -0.3816    0.8130   -0.9338 C   0  0  0  0  0  0  0  0  0  0  0  0
   -1.3711    0.1766   -0.1656 C   0  0  0  0  0  0  0  0  0  0  0  0
   -2.7376    0.3397   -0.4482 C   0  0  0  0  0  0  0  0  0  0  0  0
   -3.7265   -0.2962    0.3210 C   0  0  0  0  0  0  0  0  0  0  0  0
   -5.0946   -0.1327    0.0387 C   0  0  0  0  0  0  0  0  0  0  0  0
   -9.6697    6.4643    1.4672 H   0  0  0  0  0  0  0  0  0  0  0  0
   -7.2516    6.1973    1.9980 H   0  0  0  0  0  0  0  0  0  0  0  0
   -6.1894    3.9683    1.7814 H   0  0  0  0  0  0  0  0  0  0  0  0
  -10.9849    4.4956    0.7300 H   0  0  0  0  0  0  0  0  0  0  0  0
  -11.2740   -0.0525   -0.2853 H   0  0  0  0  0  0  0  0  0  0  0  0
  -11.7976   -4.5707   -1.3385 H   0  0  0  0  0  0  0  0  0  0  0  0
  -10.8587   -6.8509   -1.5918 H   0  0  0  0  0  0  0  0  0  0  0  0
   -8.4498   -7.2495   -1.1078 H   0  0  0  0  0  0  0  0  0  0  0  0
   -7.0192   -5.3596   -0.3766 H   0  0  0  0  0  0  0  0  0  0  0  0
   -6.4208   -2.0775    2.4942 H   0  0  0  0  0  0  0  0  0  0  0  0
   -4.0487   -2.3814    3.0082 H   0  0  0  0  0  0  0  0  0  0  0  0
   -1.6732   -1.9090    2.5178 H   0  0  0  0  0  0  0  0  0  0  0  0
    0.6797   -1.4402    2.0281 H   0  0  0  0  0  0  0  0  0  0  0  0
    3.0396   -0.9711    1.5383 H   0  0  0  0  0  0  0  0  0  0  0  0
    5.3964   -0.5081    1.0456 H   0  0  0  0  0  0  0  0  0  0  0  0
    7.0027    5.3337    0.7636 H   0  0  0  0  0  0  0  0  0  0  0  0
    8.4264    7.2068    1.5486 H   0  0  0  0  0  0  0  0  0  0  0  0
   10.8355    6.8027    2.0262 H   0  0  0  0  0  0  0  0  0  0  0  0
   11.7814    4.5320    1.7117 H   0  0  0  0  0  0  0  0  0  0  0  0
   11.2748    0.0421    0.5314 H   0  0  0  0  0  0  0  0  0  0  0  0
   10.9992   -4.4807   -0.6119 H   0  0  0  0  0  0  0  0  0  0  0  0
    9.6896   -6.4318   -1.4047 H   0  0  0  0  0  0  0  0  0  0  0  0
    7.2726   -6.1564   -1.9321 H   0  0  0  0  0  0  0  0  0  0  0  0
    6.2043   -3.9346   -1.6553 H   0  0  0  0  0  0  0  0  0  0  0  0
    6.4225    2.0912   -2.2263 H   0  0  0  0  0  0  0  0  0  0  0  0
    4.0499    2.4000   -2.7375 H   0  0  0  0  0  0  0  0  0  0  0  0
    1.6746    1.9244   -2.2502 H   0  0  0  0  0  0  0  0  0  0  0  0
   -0.6801    1.4469   -1.7669 H   0  0  0  0  0  0  0  0  0  0  0  0
   -3.0384    0.9733   -1.2807 H   0  0  0  0  0  0  0  0  0  0  0  0
   -5.3946    0.5042   -0.7920 H   0  0  0  0  0  0  0  0  0  0  0  0
  1  2  4  0
  2  3  4  0
  3  4  4  0
  4  5  4  0
  5  6  4  0
  6  7  4  0
  7  8  4  0
  8  9  4  0
  9 10  4  0
  7 11  4  0
 11 12  4  0
 12 13  4  0
 13 14  4  0
 14 15  4  0
 15 16  4  0
 16 17  4  0
 17 18  4  0
 18 19  4  0
 19 20  4  0
 20 21  4  0
 21 22  4  0
 22 23  1  0
 23 24  4  0
 24 25  4  0
 25 26  4  0
 26 27  4  0
 27 28  4  0
 28 29  4  0
 29 30  4  0
 30 31  4  0
 31 32  4  0
 32 33  4  0
 33 34  4  0
 34 35  1  0
 35 36  4  0
 36 37  4  0
 37 38  4  0
 38 39  4  0
 39 40  4  0
 40 41  4  0
 41 42  4  0
 42 43  4  0
 43 44  4  0
 44 45  4  0
 45 46  4  0
 46 47  4  0
 47 48  4  0
 48 49  4  0
 49 50  4  0
 50 51  4  0
 51 52  4  0
 52 53  4  0
 53 54  4  0
 54 55  4  0
 55 56  4  0
 34 57  4  0
 57 58  4  0
 58 59  4  0
 59 60  4  0
 60 61  4  0
 61 62  4  0
 62 63  4  0
 63 64  4  0
 64 65  4  0
 65 66  4  0
 10  1  4  0
 21 12  4  0
 66 23  4  0
  9  4  4  0
 19 14  4  0
 65 26  4  0
 22  6  4  0
 63 28  4  0
 61 30  4  0
 59 32  4  0
 56 35  4  0
 45 36  4  0
 56 47  4  0
 43 38  4  0
 54 49  4  0
  1 67  1  0
  2 68  1  0
  3 69  1  0
 10 70  1  0
 11 71  1  0
 15 72  1  0
 16 73  1  0
 17 74  1  0
 18 75  1  0
 24 76  1  0
 25 77  1  0
 27 78  1  0
 29 79  1  0
 31 80  1  0
 33 81  1  0
 39 82  1  0
 40 83  1  0
 41 84  1  0
 42 85  1  0
 46 86  1  0
 50 87  1  0
 51 88  1  0
 52 89  1  0
 53 90  1  0
 57 91  1  0
 58 92  1  0
 60 93  1  0
 62 94  1  0
 64 95  1  0
 66 96  1  0
M  END
