
     RDKit          3D

 96110  0  0  0  0  0  0  0  0999 V2000
  -18.9696   -0.3797    1.4481 C   0  0  0  0  0  0  0  0  0  0  0  0
  -18.0266   -0.1985    0.4357 C   0  0  0  0  0  0  0  0  0  0  0  0
  -16.6654   -0.3262    0.6847 C   0  0  0  0  0  0  0  0  0  0  0  0
  -15.7848   -0.1444   -0.3162 N   0  0  0  0  0  0  0  0  0  0  0  0
  -14.4798   -0.2785   -0.0262 C   0  0  0  0  0  0  0  0  0  0  0  0
  -13.5359   -0.1010   -1.0240 C   0  0  0  0  0  0  0  0  0  0  0  0
  -12.1792   -0.2298   -0.7780 C   0  0  0  0  0  0  0  0  0  0  0  0
  -11.3013   -0.0505   -1.7797 N   0  0  0  0  0  0  0  0  0  0  0  0
   -9.9948   -0.1899   -1.4923 C   0  0  0  0  0  0  0  0  0  0  0  0
   -9.0497   -0.0191   -2.4925 C   0  0  0  0  0  0  0  0  0  0  0  0
   -7.6843   -0.1615   -2.2318 C   0  0  0  0  0  0  0  0  0  0  0  0
   -7.2346   -0.4813   -0.9463 C   0  0  0  0  0  0  0  0  0  0  0  0
   -5.8012   -0.6457   -0.6566 C   0  0  0  0  0  0  0  0  0  0  0  0
   -5.3226   -1.8006   -0.0223 C   0  0  0  0  0  0  0  0  0  0  0  0
   -3.9611   -1.9605    0.2520 C   0  0  0  0  0  0  0  0  0  0  0  0
   -3.0374   -0.9666   -0.1000 C   0  0  0  0  0  0  0  0  0  0  0  0
   -1.6665   -1.1123    0.1684 C   0  0  0  0  0  0  0  0  0  0  0  0
   -0.7410   -0.1154   -0.1838 C   0  0  0  0  0  0  0  0  0  0  0  0
    0.6310   -0.2606    0.0829 C   0  0  0  0  0  0  0  0  0  0  0  0
    1.5560    0.7365   -0.2691 C   0  0  0  0  0  0  0  0  0  0  0  0
    2.9277    0.5900   -0.0023 C   0  0  0  0  0  0  0  0  0  0  0  0
    3.8537    1.5861   -0.3539 C   0  0  0  0  0  0  0  0  0  0  0  0
    5.2273    1.4390   -0.0871 C   0  0  0  0  0  0  0  0  0  0  0  0
    6.1591    2.4325   -0.4339 C   0  0  0  0  0  0  0  0  0  0  0  0
    7.5919    2.2601   -0.1486 C   0  0  0  0  0  0  0  0  0  0  0  0
    8.3091    3.2223    0.5699 C   0  0  0  0  0  0  0  0  0  0  0  0
    9.6701    3.0442    0.8323 C   0  0  0  0  0  0  0  0  0  0  0  0
   10.3476    1.9173    0.3905 C   0  0  0  0  0  0  0  0  0  0  0  0
   11.6589    1.7786    0.6590 N   0  0  0  0  0  0  0  0  0  0  0  0
   12.2729    0.6712    0.2068 C   0  0  0  0  0  0  0  0  0  0  0  0
   13.6232    0.4836    0.4547 C   0  0  0  0  0  0  0  0  0  0  0  0
   14.3013   -0.6397    0.0094 C   0  0  0  0  0  0  0  0  0  0  0  0
   15.6122   -0.7755    0.2751 N   0  0  0  0  0  0  0  0  0  0  0  0
   16.2280   -1.8835   -0.1781 C   0  0  0  0  0  0  0  0  0  0  0  0
   17.5828   -2.0705    0.0704 C   0  0  0  0  0  0  0  0  0  0  0  0
   18.2548   -3.2064   -0.3836 C   0  0  0  0  0  0  0  0  0  0  0  0
   17.5597   -4.1725   -1.0988 C   0  0  0  0  0  0  0  0  0  0  0  0
   16.1992   -3.9936   -1.3533 C   0  0  0  0  0  0  0  0  0  0  0  0
   15.5214   -2.8658   -0.9053 C   0  0  0  0  0  0  0  0  0  0  0  0
   14.2090   -2.7272   -1.1696 N   0  0  0  0  0  0  0  0  0  0  0  0
   13.5969   -1.6196   -0.7161 C   0  0  0  0  0  0  0  0  0  0  0  0
   12.2467   -1.4321   -0.9636 C   0  0  0  0  0  0  0  0  0  0  0  0
   11.5691   -0.3087   -0.5184 C   0  0  0  0  0  0  0  0  0  0  0  0
   10.2582   -0.1727   -0.7845 N   0  0  0  0  0  0  0  0  0  0  0  0
    9.6417    0.9362   -0.3353 C   0  0  0  0  0  0  0  0  0  0  0  0
    8.2872    1.1226   -0.5899 C   0  0  0  0  0  0  0  0  0  0  0  0
    5.6821    3.5909   -1.0618 C   0  0  0  0  0  0  0  0  0  0  0  0
    4.3208    3.7523   -1.3359 C   0  0  0  0  0  0  0  0  0  0  0  0
    3.3954    2.7582   -0.9871 C   0  0  0  0  0  0  0  0  0  0  0  0
    2.0239    2.9048   -1.2547 C   0  0  0  0  0  0  0  0  0  0  0  0
    1.0984    1.9078   -0.9029 C   0  0  0  0  0  0  0  0  0  0  0  0
   -0.2737    2.0531   -1.1694 C   0  0  0  0  0  0  0  0  0  0  0  0
   -1.1988    1.0556   -0.8182 C   0  0  0  0  0  0  0  0  0  0  0  0
   -2.5706    1.2007   -1.0863 C   0  0  0  0  0  0  0  0  0  0  0  0
   -3.4964    0.2033   -0.7365 C   0  0  0  0  0  0  0  0  0  0  0  0
   -4.8702    0.3474   -1.0064 C   0  0  0  0  0  0  0  0  0  0  0  0
   -8.2007   -0.6478    0.0592 C   0  0  0  0  0  0  0  0  0  0  0  0
   -9.5618   -0.5104   -0.1896 C   0  0  0  0  0  0  0  0  0  0  0  0
  -10.4427   -0.6870    0.8119 N   0  0  0  0  0  0  0  0  0  0  0  0
  -11.7478   -0.5491    0.5236 C   0  0  0  0  0  0  0  0  0  0  0  0
  -12.6913   -0.7250    1.5219 C   0  0  0  0  0  0  0  0  0  0  0  0
  -14.0480   -0.5974    1.2758 C   0  0  0  0  0  0  0  0  0  0  0  0
  -14.9250   -0.7796    2.2775 N   0  0  0  0  0  0  0  0  0  0  0  0
  -16.2327   -0.6459    1.9901 C   0  0  0  0  0  0  0  0  0  0  0  0
  -17.1792   -0.8244    2.9916 C   0  0  0  0  0  0  0  0  0  0  0  0
  -18.5439   -0.6940    2.7319 C   0  0  0  0  0  0  0  0  0  0  0  0
  -20.0291   -0.2748    1.2300 H   0  0  0  0  0  0  0  0  0  0  0  0
  -18.3573    0.0477   -0.5704 H   0  0  0  0  0  0  0  0  0  0  0  0
  -13.8697    0.1452   -2.0289 H   0  0  0  0  0  0  0  0  0  0  0  0
   -9.3828    0.2246   -3.4985 H   0  0  0  0  0  0  0  0  0  0  0  0
   -6.9771   -0.0348   -3.0492 H   0  0  0  0  0  0  0  0  0  0  0  0
   -6.0092   -2.5981    0.2567 H   0  0  0  0  0  0  0  0  0  0  0  0
   -3.6283   -2.8727    0.7425 H   0  0  0  0  0  0  0  0  0  0  0  0
   -1.3146   -2.0175    0.6601 H   0  0  0  0  0  0  0  0  0  0  0  0
    0.9855   -1.1658    0.5729 H   0  0  0  0  0  0  0  0  0  0  0  0
    3.2806   -0.3159    0.4877 H   0  0  0  0  0  0  0  0  0  0  0  0
    5.5764    0.5353    0.4109 H   0  0  0  0  0  0  0  0  0  0  0  0
    7.8125    4.1160    0.9438 H   0  0  0  0  0  0  0  0  0  0  0  0
   10.2125    3.8002    1.3951 H   0  0  0  0  0  0  0  0  0  0  0  0
   14.1667    1.2405    1.0148 H   0  0  0  0  0  0  0  0  0  0  0  0
   18.1254   -1.3127    0.6306 H   0  0  0  0  0  0  0  0  0  0  0  0
   19.3150   -3.3314   -0.1775 H   0  0  0  0  0  0  0  0  0  0  0  0
   18.0692   -5.0627   -1.4592 H   0  0  0  0  0  0  0  0  0  0  0  0
   15.6527   -4.7487   -1.9134 H   0  0  0  0  0  0  0  0  0  0  0  0
   11.7032   -2.1885   -1.5242 H   0  0  0  0  0  0  0  0  0  0  0  0
    7.7655    0.3575   -1.1626 H   0  0  0  0  0  0  0  0  0  0  0  0
    6.3721    4.3789   -1.3578 H   0  0  0  0  0  0  0  0  0  0  0  0
    3.9898    4.6640   -1.8286 H   0  0  0  0  0  0  0  0  0  0  0  0
    1.6710    3.8104   -1.7450 H   0  0  0  0  0  0  0  0  0  0  0  0
   -0.6277    2.9590   -1.6586 H   0  0  0  0  0  0  0  0  0  0  0  0
   -2.9243    2.1063   -1.5760 H   0  0  0  0  0  0  0  0  0  0  0  0
   -5.2204    1.2588   -1.4889 H   0  0  0  0  0  0  0  0  0  0  0  0
   -7.8897   -0.8849    1.0753 H   0  0  0  0  0  0  0  0  0  0  0  0
  -12.3571   -0.9712    2.5266 H   0  0  0  0  0  0  0  0  0  0  0  0
  -16.8434   -1.0705    3.9961 H   0  0  0  0  0  0  0  0  0  0  0  0
  -19.2661   -0.8382    3.5312 H   0  0  0  0  0  0  0  0  0  0  0  0
  1  2  4  0
  2  3  4  0
  3  4  4  0
  4  5  4  0
  5  6  4  0
  6  7  4  0
  7  8  4  0
  8  9  4  0
  9 10  4  0
 10 11  4  0
 11 12  4  0
 12 13  1  0
 13 14  4  0
 14 15  4  0
 15 16  4  0
 16 17  4  0
 17 18  4  0
 18 19  4  0
 19 20  4  0
 20 21  4  0
 21 22  4  0
 22 23  4  0
 23 24  4  0
 24 25  1  0
 25 26  4  0
 26 27  4  0
 27 28  4  0
 28 29  4  0
 29 30  4  0
 30 31  4  0
 31 32  4  0
 32 33  4  0
 33 34  4  0
 34 35  4  0
 35 36  4  0
 36 37  4  0
 37 38  4  0
 38 39  4  0
 39 40  4  0
 40 41  4  0
 41 42  4  0
 42 43  4  0
 43 44  4  0
 44 45  4  0
 45 46  4  0
 24 47  4  0
 47 48  4  0
 48 49  4  0
 49 50  4  0
 50 51  4  0
 51 52  4  0
 52 53  4  0
 53 54  4  0
 54 55  4  0
 55 56  4  0
 12 57  4  0
 57 58  4  0
 58 59  4  0
 59 60  4  0
 60 61  4  0
 61 62  4  0
 62 63  4  0
 63 64  4  0
 64 65  4  0
 65 66  4  0
 66  1  4  0
 64  3  4  0
 62  5  4  0
 60  7  4  0
 58  9  4  0
 56 13  4  0
 55 16  4  0
 53 18  4  0
 51 20  4  0
 49 22  4  0
 46 25  4  0
 45 28  4  0
 43 30  4  0
 41 32  4  0
 39 34  4  0
  1 67  1  0
  2 68  1  0
  6 69  1  0
 10 70  1  0
 11 71  1  0
 14 72  1  0
 15 73  1  0
 17 74  1  0
 19 75  1  0
 21 76  1  0
 23 77  1  0
 26 78  1  0
 27 79  1  0
 31 80  1  0
 35 81  1  0
 36 82  1  0
 37 83  1  0
 38 84  1  0
 42 85  1  0
 46 86  1  0
 47 87  1  0
 48 88  1  0
 50 89  1  0
 52 90  1  0
 54 91  1  0
 56 92  1  0
 57 93  1  0
 61 94  1  0
 65 95  1  0
 66 96  1  0
M  END
