
     RDKit          3D

 96110  0  0  0  0  0  0  0  0999 V2000
  -17.9437   -1.5588    3.2191 C   0  0  0  0  0  0  0  0  0  0  0  0
  -17.1665   -2.2444    4.1433 C   0  0  0  0  0  0  0  0  0  0  0  0
  -15.7762   -2.1419    4.0839 C   0  0  0  0  0  0  0  0  0  0  0  0
  -15.1494   -1.3659    3.1164 C   0  0  0  0  0  0  0  0  0  0  0  0
  -13.8063   -1.2904    3.0893 N   0  0  0  0  0  0  0  0  0  0  0  0
  -13.2464   -0.5272    2.1349 C   0  0  0  0  0  0  0  0  0  0  0  0
  -11.8670   -0.4182    2.0653 C   0  0  0  0  0  0  0  0  0  0  0  0
  -11.2410    0.3540    1.1003 C   0  0  0  0  0  0  0  0  0  0  0  0
   -9.8988    0.4265    1.0726 N   0  0  0  0  0  0  0  0  0  0  0  0
   -9.3348    1.1868    0.1160 C   0  0  0  0  0  0  0  0  0  0  0  0
   -7.9494    1.2905    0.0454 C   0  0  0  0  0  0  0  0  0  0  0  0
   -7.3044    2.0651   -0.9328 C   0  0  0  0  0  0  0  0  0  0  0  0
   -5.8361    2.1505   -0.9908 C   0  0  0  0  0  0  0  0  0  0  0  0
   -5.1832    3.3905   -1.0173 C   0  0  0  0  0  0  0  0  0  0  0  0
   -3.7883    3.4695   -1.0754 C   0  0  0  0  0  0  0  0  0  0  0  0
   -3.0051    2.3071   -1.1096 C   0  0  0  0  0  0  0  0  0  0  0  0
   -1.6030    2.3689   -1.1688 C   0  0  0  0  0  0  0  0  0  0  0  0
   -0.8198    1.2030   -1.2048 C   0  0  0  0  0  0  0  0  0  0  0  0
    0.5822    1.2638   -1.2645 C   0  0  0  0  0  0  0  0  0  0  0  0
    1.3653    0.0982   -1.3020 C   0  0  0  0  0  0  0  0  0  0  0  0
    2.7671    0.1613   -1.3625 C   0  0  0  0  0  0  0  0  0  0  0  0
    3.5516   -1.0029   -1.3986 C   0  0  0  0  0  0  0  0  0  0  0  0
    4.9552   -0.9380   -1.4578 C   0  0  0  0  0  0  0  0  0  0  0  0
    5.7498   -2.0970   -1.4925 C   0  0  0  0  0  0  0  0  0  0  0  0
    7.2177   -2.0052   -1.5501 C   0  0  0  0  0  0  0  0  0  0  0  0
    7.9306   -1.2124   -0.6356 C   0  0  0  0  0  0  0  0  0  0  0  0
    9.3159   -1.0987   -0.6732 C   0  0  0  0  0  0  0  0  0  0  0  0
    9.9447   -0.3195    0.2260 N   0  0  0  0  0  0  0  0  0  0  0  0
   11.2850   -0.2389    0.1520 C   0  0  0  0  0  0  0  0  0  0  0  0
   11.9769    0.5508    1.0562 C   0  0  0  0  0  0  0  0  0  0  0  0
   13.3571    0.6679    1.0218 C   0  0  0  0  0  0  0  0  0  0  0  0
   13.9820    1.4474    1.9214 N   0  0  0  0  0  0  0  0  0  0  0  0
   15.3235    1.5302    1.8487 C   0  0  0  0  0  0  0  0  0  0  0  0
   16.0158    2.3232    2.7564 C   0  0  0  0  0  0  0  0  0  0  0  0
   17.4064    2.4341    2.7124 C   0  0  0  0  0  0  0  0  0  0  0  0
   18.1174    1.7393    1.7429 C   0  0  0  0  0  0  0  0  0  0  0  0
   17.4311    0.9404    0.8271 C   0  0  0  0  0  0  0  0  0  0  0  0
   16.0465    0.8237    0.8632 C   0  0  0  0  0  0  0  0  0  0  0  0
   15.4181    0.0439   -0.0362 N   0  0  0  0  0  0  0  0  0  0  0  0
   14.0782   -0.0368    0.0390 C   0  0  0  0  0  0  0  0  0  0  0  0
   13.3863   -0.8267   -0.8651 C   0  0  0  0  0  0  0  0  0  0  0  0
   12.0058   -0.9435   -0.8308 C   0  0  0  0  0  0  0  0  0  0  0  0
   11.3794   -1.7222   -1.7305 N   0  0  0  0  0  0  0  0  0  0  0  0
   10.0382   -1.8034   -1.6572 C   0  0  0  0  0  0  0  0  0  0  0  0
    9.3452   -2.5920   -2.5640 C   0  0  0  0  0  0  0  0  0  0  0  0
    7.9522   -2.6970   -2.5188 C   0  0  0  0  0  0  0  0  0  0  0  0
    5.1001   -3.3388   -1.4687 C   0  0  0  0  0  0  0  0  0  0  0  0
    3.7052   -3.4213   -1.4109 C   0  0  0  0  0  0  0  0  0  0  0  0
    2.9186   -2.2611   -1.3750 C   0  0  0  0  0  0  0  0  0  0  0  0
    1.5163   -2.3247   -1.3155 C   0  0  0  0  0  0  0  0  0  0  0  0
    0.7320   -1.1594   -1.2784 C   0  0  0  0  0  0  0  0  0  0  0  0
   -0.6702   -1.2201   -1.2181 C   0  0  0  0  0  0  0  0  0  0  0  0
   -1.4539   -0.0543   -1.1809 C   0  0  0  0  0  0  0  0  0  0  0  0
   -2.8564   -0.1154   -1.1207 C   0  0  0  0  0  0  0  0  0  0  0  0
   -3.6405    1.0499   -1.0840 C   0  0  0  0  0  0  0  0  0  0  0  0
   -5.0450    0.9889   -1.0241 C   0  0  0  0  0  0  0  0  0  0  0  0
   -8.1070    2.7478   -1.8528 C   0  0  0  0  0  0  0  0  0  0  0  0
   -9.4997    2.6519   -1.7902 C   0  0  0  0  0  0  0  0  0  0  0  0
  -10.1257    1.8819   -0.8212 C   0  0  0  0  0  0  0  0  0  0  0  0
  -11.4688    1.8097   -0.7922 N   0  0  0  0  0  0  0  0  0  0  0  0
  -12.0295    1.0487    0.1636 C   0  0  0  0  0  0  0  0  0  0  0  0
  -13.4089    0.9406    0.2334 C   0  0  0  0  0  0  0  0  0  0  0  0
  -14.0348    0.1679    1.1978 C   0  0  0  0  0  0  0  0  0  0  0  0
  -15.3765    0.0946    1.2225 N   0  0  0  0  0  0  0  0  0  0  0  0
  -15.9397   -0.6687    2.1767 C   0  0  0  0  0  0  0  0  0  0  0  0
  -17.3234   -0.7770    2.2439 C   0  0  0  0  0  0  0  0  0  0  0  0
  -19.0278   -1.6285    3.2523 H   0  0  0  0  0  0  0  0  0  0  0  0
  -17.6348   -2.8574    4.9089 H   0  0  0  0  0  0  0  0  0  0  0  0
  -15.1658   -2.6780    4.8067 H   0  0  0  0  0  0  0  0  0  0  0  0
  -11.2583   -0.9548    2.7888 H   0  0  0  0  0  0  0  0  0  0  0  0
   -7.3599    0.7539    0.7870 H   0  0  0  0  0  0  0  0  0  0  0  0
   -5.7576    4.3142   -0.9801 H   0  0  0  0  0  0  0  0  0  0  0  0
   -3.3184    4.4507   -1.0912 H   0  0  0  0  0  0  0  0  0  0  0  0
   -1.1134    3.3410   -1.1879 H   0  0  0  0  0  0  0  0  0  0  0  0
    1.0743    2.2349   -1.2826 H   0  0  0  0  0  0  0  0  0  0  0  0
    3.2562    1.1338   -1.3809 H   0  0  0  0  0  0  0  0  0  0  0  0
    5.4388    0.0376   -1.4873 H   0  0  0  0  0  0  0  0  0  0  0  0
    7.3966   -0.6683    0.1418 H   0  0  0  0  0  0  0  0  0  0  0  0
   11.4204    1.0949    1.8154 H   0  0  0  0  0  0  0  0  0  0  0  0
   15.4561    2.8661    3.5144 H   0  0  0  0  0  0  0  0  0  0  0  0
   17.9265    3.0605    3.4328 H   0  0  0  0  0  0  0  0  0  0  0  0
   19.2008    1.8153    1.6953 H   0  0  0  0  0  0  0  0  0  0  0  0
   17.9857    0.3954    0.0669 H   0  0  0  0  0  0  0  0  0  0  0  0
   13.9430   -1.3708   -1.6240 H   0  0  0  0  0  0  0  0  0  0  0  0
    9.9009   -3.1331   -3.3261 H   0  0  0  0  0  0  0  0  0  0  0  0
    7.4464   -3.3144   -3.2591 H   0  0  0  0  0  0  0  0  0  0  0  0
    5.6775   -4.2612   -1.4811 H   0  0  0  0  0  0  0  0  0  0  0  0
    3.2386   -4.4038   -1.3897 H   0  0  0  0  0  0  0  0  0  0  0  0
    1.0280   -3.2974   -1.2973 H   0  0  0  0  0  0  0  0  0  0  0  0
   -1.1605   -2.1920   -1.2005 H   0  0  0  0  0  0  0  0  0  0  0  0
   -3.3465   -1.0873   -1.1020 H   0  0  0  0  0  0  0  0  0  0  0  0
   -5.5335    0.0151   -1.0147 H   0  0  0  0  0  0  0  0  0  0  0  0
   -7.6557    3.3510   -2.6385 H   0  0  0  0  0  0  0  0  0  0  0  0
  -10.1084    3.1858   -2.5162 H   0  0  0  0  0  0  0  0  0  0  0  0
  -14.0178    1.4770   -0.4900 H   0  0  0  0  0  0  0  0  0  0  0  0
  -17.9297   -0.2391    1.5190 H   0  0  0  0  0  0  0  0  0  0  0  0
  1  2  4  0
  2  3  4  0
  3  4  4  0
  4  5  4  0
  5  6  4  0
  6  7  4  0
  7  8  4  0
  8  9  4  0
  9 10  4  0
 10 11  4  0
 11 12  4  0
 12 13  1  0
 13 14  4  0
 14 15  4  0
 15 16  4  0
 16 17  4  0
 17 18  4  0
 18 19  4  0
 19 20  4  0
 20 21  4  0
 21 22  4  0
 22 23  4  0
 23 24  4  0
 24 25  1  0
 25 26  4  0
 26 27  4  0
 27 28  4  0
 28 29  4  0
 29 30  4  0
 30 31  4  0
 31 32  4  0
 32 33  4  0
 33 34  4  0
 34 35  4  0
 35 36  4  0
 36 37  4  0
 37 38  4  0
 38 39  4  0
 39 40  4  0
 40 41  4  0
 41 42  4  0
 42 43  4  0
 43 44  4  0
 44 45  4  0
 45 46  4  0
 24 47  4  0
 47 48  4  0
 48 49  4  0
 49 50  4  0
 50 51  4  0
 51 52  4  0
 52 53  4  0
 53 54  4  0
 54 55  4  0
 55 56  4  0
 12 57  4  0
 57 58  4  0
 58 59  4  0
 59 60  4  0
 60 61  4  0
 61 62  4  0
 62 63  4  0
 63 64  4  0
 64 65  4  0
 65 66  4  0
 66  1  4  0
 65  4  4  0
 63  6  4  0
 61  8  4  0
 59 10  4  0
 56 13  4  0
 55 16  4  0
 53 18  4  0
 51 20  4  0
 49 22  4  0
 46 25  4  0
 44 27  4  0
 42 29  4  0
 40 31  4  0
 38 33  4  0
  1 67  1  0
  2 68  1  0
  3 69  1  0
  7 70  1  0
 11 71  1  0
 14 72  1  0
 15 73  1  0
 17 74  1  0
 19 75  1  0
 21 76  1  0
 23 77  1  0
 26 78  1  0
 30 79  1  0
 34 80  1  0
 35 81  1  0
 36 82  1  0
 37 83  1  0
 41 84  1  0
 45 85  1  0
 46 86  1  0
 47 87  1  0
 48 88  1  0
 50 89  1  0
 52 90  1  0
 54 91  1  0
 56 92  1  0
 57 93  1  0
 58 94  1  0
 62 95  1  0
 66 96  1  0
M  END
