
     RDKit          3D

 96110  0  0  0  0  0  0  0  0999 V2000
   12.5664    2.4781   -4.8237 C   0  0  0  0  0  0  0  0  0  0  0  0
   11.3987    2.0169   -5.4169 C   0  0  0  0  0  0  0  0  0  0  0  0
   10.3980    1.4569   -4.6216 C   0  0  0  0  0  0  0  0  0  0  0  0
   10.5441    1.3499   -3.2434 C   0  0  0  0  0  0  0  0  0  0  0  0
    9.5574    0.8046   -2.5081 N   0  0  0  0  0  0  0  0  0  0  0  0
    9.7441    0.7210   -1.1789 C   0  0  0  0  0  0  0  0  0  0  0  0
    8.7587    0.1660   -0.3774 C   0  0  0  0  0  0  0  0  0  0  0  0
    8.9050    0.0584    0.9968 C   0  0  0  0  0  0  0  0  0  0  0  0
    7.9233   -0.4869    1.7344 N   0  0  0  0  0  0  0  0  0  0  0  0
    8.0918   -0.5856    3.0759 C   0  0  0  0  0  0  0  0  0  0  0  0
    9.2897   -0.1101    3.6597 C   0  0  0  0  0  0  0  0  0  0  0  0
   10.2710    0.4405    2.9224 N   0  0  0  0  0  0  0  0  0  0  0  0
   10.0858    0.5251    1.5953 C   0  0  0  0  0  0  0  0  0  0  0  0
   11.0722    1.0806    0.7960 C   0  0  0  0  0  0  0  0  0  0  0  0
   10.9281    1.1889   -0.5778 C   0  0  0  0  0  0  0  0  0  0  0  0
   11.9152    1.7359   -1.3094 N   0  0  0  0  0  0  0  0  0  0  0  0
   11.7311    1.8189   -2.6401 C   0  0  0  0  0  0  0  0  0  0  0  0
   12.7222    2.3750   -3.4406 C   0  0  0  0  0  0  0  0  0  0  0  0
    9.4783   -0.2069    5.0304 C   0  0  0  0  0  0  0  0  0  0  0  0
    8.5118   -0.7665    5.8581 C   0  0  0  0  0  0  0  0  0  0  0  0
    7.3327   -1.2395    5.2993 C   0  0  0  0  0  0  0  0  0  0  0  0
    7.1075   -1.1574    3.9108 C   0  0  0  0  0  0  0  0  0  0  0  0
    5.8349   -1.6767    3.3691 C   0  0  0  0  0  0  0  0  0  0  0  0
    5.4854   -3.0257    3.5250 C   0  0  0  0  0  0  0  0  0  0  0  0
    4.2737   -3.5162    3.0303 C   0  0  0  0  0  0  0  0  0  0  0  0
    3.3748   -2.6688    2.3670 C   0  0  0  0  0  0  0  0  0  0  0  0
    2.1536   -3.1463    1.8637 C   0  0  0  0  0  0  0  0  0  0  0  0
    1.2510   -2.2969    1.2016 C   0  0  0  0  0  0  0  0  0  0  0  0
    0.0282   -2.7740    0.6996 C   0  0  0  0  0  0  0  0  0  0  0  0
   -0.8745   -1.9246    0.0378 C   0  0  0  0  0  0  0  0  0  0  0  0
   -2.0972   -2.4011   -0.4647 C   0  0  0  0  0  0  0  0  0  0  0  0
   -3.0002   -1.5511   -1.1266 C   0  0  0  0  0  0  0  0  0  0  0  0
   -4.2249   -2.0265   -1.6320 C   0  0  0  0  0  0  0  0  0  0  0  0
   -5.1305   -1.1821   -2.3006 C   0  0  0  0  0  0  0  0  0  0  0  0
   -6.3957   -1.7129   -2.8553 C   0  0  0  0  0  0  0  0  0  0  0  0
   -6.3317   -2.7839   -3.7702 C   0  0  0  0  0  0  0  0  0  0  0  0
   -7.4863   -3.3195   -4.3234 C   0  0  0  0  0  0  0  0  0  0  0  0
   -8.7193   -2.7870   -3.9674 C   0  0  0  0  0  0  0  0  0  0  0  0
   -8.8208   -1.7317   -3.0736 C   0  0  0  0  0  0  0  0  0  0  0  0
  -10.0497   -1.2699   -2.7811 N   0  0  0  0  0  0  0  0  0  0  0  0
  -10.1461   -0.2493   -1.9147 C   0  0  0  0  0  0  0  0  0  0  0  0
  -11.3926    0.2597   -1.5862 C   0  0  0  0  0  0  0  0  0  0  0  0
  -11.5432    1.3139   -0.7000 C   0  0  0  0  0  0  0  0  0  0  0  0
  -12.7744    1.7730   -0.4155 N   0  0  0  0  0  0  0  0  0  0  0  0
  -12.8716    2.7990    0.4500 C   0  0  0  0  0  0  0  0  0  0  0  0
  -14.1227    3.3094    0.7769 C   0  0  0  0  0  0  0  0  0  0  0  0
  -14.2632    4.3726    1.6699 C   0  0  0  0  0  0  0  0  0  0  0  0
  -13.1323    4.9353    2.2464 C   0  0  0  0  0  0  0  0  0  0  0  0
  -11.8720    4.4298    1.9244 C   0  0  0  0  0  0  0  0  0  0  0  0
  -11.7218    3.3713    1.0360 C   0  0  0  0  0  0  0  0  0  0  0  0
  -10.4905    2.9097    0.7485 N   0  0  0  0  0  0  0  0  0  0  0  0
  -10.3960    1.8836   -0.1157 C   0  0  0  0  0  0  0  0  0  0  0  0
   -9.1505    1.3713   -0.4445 C   0  0  0  0  0  0  0  0  0  0  0  0
   -9.0015    0.3172   -1.3326 C   0  0  0  0  0  0  0  0  0  0  0  0
   -7.7739   -0.1446   -1.6260 N   0  0  0  0  0  0  0  0  0  0  0  0
   -7.6530   -1.1742   -2.5004 C   0  0  0  0  0  0  0  0  0  0  0  0
   -4.7809    0.1669   -2.4478 C   0  0  0  0  0  0  0  0  0  0  0  0
   -3.5704    0.6570   -1.9487 C   0  0  0  0  0  0  0  0  0  0  0  0
   -2.6701   -0.1912   -1.2888 C   0  0  0  0  0  0  0  0  0  0  0  0
   -1.4483    0.2855   -0.7862 C   0  0  0  0  0  0  0  0  0  0  0  0
   -0.5463   -0.5649   -0.1252 C   0  0  0  0  0  0  0  0  0  0  0  0
    0.6762   -0.0880    0.3768 C   0  0  0  0  0  0  0  0  0  0  0  0
    1.5793   -0.9373    1.0380 C   0  0  0  0  0  0  0  0  0  0  0  0
    2.8024   -0.4604    1.5393 C   0  0  0  0  0  0  0  0  0  0  0  0
    3.7054   -1.3092    2.2015 C   0  0  0  0  0  0  0  0  0  0  0  0
    4.9305   -0.8325    2.7028 C   0  0  0  0  0  0  0  0  0  0  0  0
   13.3550    2.9168   -5.4299 H   0  0  0  0  0  0  0  0  0  0  0  0
   11.2624    2.0901   -6.4930 H   0  0  0  0  0  0  0  0  0  0  0  0
    9.4828    1.0949   -5.0840 H   0  0  0  0  0  0  0  0  0  0  0  0
    7.8441   -0.1975   -0.8397 H   0  0  0  0  0  0  0  0  0  0  0  0
   11.9863    1.4411    1.2607 H   0  0  0  0  0  0  0  0  0  0  0  0
   13.6360    2.7356   -2.9742 H   0  0  0  0  0  0  0  0  0  0  0  0
   10.4049    0.1648    5.4625 H   0  0  0  0  0  0  0  0  0  0  0  0
    8.6780   -0.8302    6.9304 H   0  0  0  0  0  0  0  0  0  0  0  0
    6.5729   -1.6688    5.9509 H   0  0  0  0  0  0  0  0  0  0  0  0
    6.1636   -3.7131    4.0266 H   0  0  0  0  0  0  0  0  0  0  0  0
    4.0396   -4.5697    3.1664 H   0  0  0  0  0  0  0  0  0  0  0  0
    1.9017   -4.1976    1.9906 H   0  0  0  0  0  0  0  0  0  0  0  0
   -0.2240   -3.8253    0.8264 H   0  0  0  0  0  0  0  0  0  0  0  0
   -2.3507   -3.4522   -0.3383 H   0  0  0  0  0  0  0  0  0  0  0  0
   -4.4821   -3.0759   -1.4958 H   0  0  0  0  0  0  0  0  0  0  0  0
   -5.3668   -3.1957   -4.0630 H   0  0  0  0  0  0  0  0  0  0  0  0
   -7.4280   -4.1432   -5.0299 H   0  0  0  0  0  0  0  0  0  0  0  0
   -9.6275   -3.2024   -4.3987 H   0  0  0  0  0  0  0  0  0  0  0  0
  -12.2780   -0.1803   -2.0380 H   0  0  0  0  0  0  0  0  0  0  0  0
  -15.0066    2.8666    0.3239 H   0  0  0  0  0  0  0  0  0  0  0  0
  -15.2518    4.7553    1.9107 H   0  0  0  0  0  0  0  0  0  0  0  0
  -13.2249    5.7639    2.9439 H   0  0  0  0  0  0  0  0  0  0  0  0
  -10.9851    4.8690    2.3749 H   0  0  0  0  0  0  0  0  0  0  0  0
   -8.2634    1.8089    0.0068 H   0  0  0  0  0  0  0  0  0  0  0  0
   -5.4565    0.8540   -2.9542 H   0  0  0  0  0  0  0  0  0  0  0  0
   -3.3393    1.7116   -2.0814 H   0  0  0  0  0  0  0  0  0  0  0  0
   -1.1946    1.3367   -0.9118 H   0  0  0  0  0  0  0  0  0  0  0  0
    0.9275    0.9637    0.2519 H   0  0  0  0  0  0  0  0  0  0  0  0
    3.0588    0.5898    1.4105 H   0  0  0  0  0  0  0  0  0  0  0  0
    5.1897    0.2170    2.5696 H   0  0  0  0  0  0  0  0  0  0  0  0
  1  2  4  0
  2  3  4  0
  3  4  4  0
  4  5  4  0
  5  6  4  0
  6  7  4  0
  7  8  4  0
  8  9  4  0
  9 10  4  0
 10 11  4  0
 11 12  4  0
 12 13  4  0
 13 14  4  0
 14 15  4  0
 15 16  4  0
 16 17  4  0
 17 18  4  0
 11 19  4  0
 19 20  4  0
 20 21  4  0
 21 22  4  0
 22 23  1  0
 23 24  4  0
 24 25  4  0
 25 26  4  0
 26 27  4  0
 27 28  4  0
 28 29  4  0
 29 30  4  0
 30 31  4  0
 31 32  4  0
 32 33  4  0
 33 34  4  0
 34 35  1  0
 35 36  4  0
 36 37  4  0
 37 38  4  0
 38 39  4  0
 39 40  4  0
 40 41  4  0
 41 42  4  0
 42 43  4  0
 43 44  4  0
 44 45  4  0
 45 46  4  0
 46 47  4  0
 47 48  4  0
 48 49  4  0
 49 50  4  0
 50 51  4  0
 51 52  4  0
 52 53  4  0
 53 54  4  0
 54 55  4  0
 55 56  4  0
 34 57  4  0
 57 58  4  0
 58 59  4  0
 59 60  4  0
 60 61  4  0
 61 62  4  0
 62 63  4  0
 63 64  4  0
 64 65  4  0
 65 66  4  0
 18  1  4  0
 66 23  4  0
 17  4  4  0
 65 26  4  0
 15  6  4  0
 63 28  4  0
 13  8  4  0
 61 30  4  0
 22 10  4  0
 59 32  4  0
 56 35  4  0
 56 39  4  0
 54 41  4  0
 52 43  4  0
 50 45  4  0
  1 67  1  0
  2 68  1  0
  3 69  1  0
  7 70  1  0
 14 71  1  0
 18 72  1  0
 19 73  1  0
 20 74  1  0
 21 75  1  0
 24 76  1  0
 25 77  1  0
 27 78  1  0
 29 79  1  0
 31 80  1  0
 33 81  1  0
 36 82  1  0
 37 83  1  0
 38 84  1  0
 42 85  1  0
 46 86  1  0
 47 87  1  0
 48 88  1  0
 49 89  1  0
 53 90  1  0
 57 91  1  0
 58 92  1  0
 60 93  1  0
 62 94  1  0
 64 95  1  0
 66 96  1  0
M  END
