
     RDKit          3D

 96110  0  0  0  0  0  0  0  0999 V2000
   11.8464    5.5309    1.4023 C   0  0  0  0  0  0  0  0  0  0  0  0
   12.1015    4.5199    0.4750 C   0  0  0  0  0  0  0  0  0  0  0  0
   11.1997    3.4828    0.2707 C   0  0  0  0  0  0  0  0  0  0  0  0
   11.4781    2.5259   -0.6332 N   0  0  0  0  0  0  0  0  0  0  0  0
   10.5741    1.5444   -0.7945 C   0  0  0  0  0  0  0  0  0  0  0  0
   10.8121    0.5378   -1.7159 C   0  0  0  0  0  0  0  0  0  0  0  0
    9.9087   -0.4921   -1.9227 C   0  0  0  0  0  0  0  0  0  0  0  0
   10.1724   -1.4434   -2.8325 N   0  0  0  0  0  0  0  0  0  0  0  0
    9.2601   -2.4174   -3.0033 C   0  0  0  0  0  0  0  0  0  0  0  0
    9.5233   -3.4009   -3.9440 C   0  0  0  0  0  0  0  0  0  0  0  0
    8.6259   -4.4355   -4.1805 C   0  0  0  0  0  0  0  0  0  0  0  0
    7.4413   -4.4861   -3.4580 C   0  0  0  0  0  0  0  0  0  0  0  0
    7.1403   -3.5071   -2.4904 C   0  0  0  0  0  0  0  0  0  0  0  0
    5.8632   -3.6054   -1.7462 C   0  0  0  0  0  0  0  0  0  0  0  0
    5.5110   -4.7812   -1.0665 C   0  0  0  0  0  0  0  0  0  0  0  0
    4.3018   -4.8795   -0.3701 C   0  0  0  0  0  0  0  0  0  0  0  0
    3.4118   -3.7968   -0.3244 C   0  0  0  0  0  0  0  0  0  0  0  0
    2.1988   -3.8708    0.3800 C   0  0  0  0  0  0  0  0  0  0  0  0
    1.3139   -2.7801    0.4320 C   0  0  0  0  0  0  0  0  0  0  0  0
    0.1008   -2.8515    1.1374 C   0  0  0  0  0  0  0  0  0  0  0  0
   -0.7813   -1.7590    1.1921 C   0  0  0  0  0  0  0  0  0  0  0  0
   -1.9942   -1.8305    1.8978 C   0  0  0  0  0  0  0  0  0  0  0  0
   -2.8757   -0.7377    1.9544 C   0  0  0  0  0  0  0  0  0  0  0  0
   -4.0903   -0.8088    2.6612 C   0  0  0  0  0  0  0  0  0  0  0  0
   -4.9769    0.2812    2.7213 C   0  0  0  0  0  0  0  0  0  0  0  0
   -6.2418    0.1903    3.4823 C   0  0  0  0  0  0  0  0  0  0  0  0
   -7.4934    0.4175    2.8700 C   0  0  0  0  0  0  0  0  0  0  0  0
   -7.5978    0.7224    1.5540 N   0  0  0  0  0  0  0  0  0  0  0  0
   -8.8169    0.9260    1.0308 C   0  0  0  0  0  0  0  0  0  0  0  0
   -8.9433    1.2417   -0.3121 C   0  0  0  0  0  0  0  0  0  0  0  0
  -10.1783    1.4662   -0.8974 C   0  0  0  0  0  0  0  0  0  0  0  0
  -10.2495    1.7732   -2.2042 N   0  0  0  0  0  0  0  0  0  0  0  0
  -11.4709    1.9840   -2.7280 C   0  0  0  0  0  0  0  0  0  0  0  0
  -11.5976    2.3041   -4.0746 C   0  0  0  0  0  0  0  0  0  0  0  0
  -12.8473    2.5302   -4.6532 C   0  0  0  0  0  0  0  0  0  0  0  0
  -13.9907    2.4344   -3.8711 C   0  0  0  0  0  0  0  0  0  0  0  0
  -13.8735    2.1131   -2.5180 C   0  0  0  0  0  0  0  0  0  0  0  0
  -12.6335    1.8861   -1.9328 C   0  0  0  0  0  0  0  0  0  0  0  0
  -12.5590    1.5785   -0.6245 N   0  0  0  0  0  0  0  0  0  0  0  0
  -11.3374    1.3685   -0.1041 C   0  0  0  0  0  0  0  0  0  0  0  0
  -11.2079    1.0504    1.2386 C   0  0  0  0  0  0  0  0  0  0  0  0
   -9.9712    0.8275    1.8231 C   0  0  0  0  0  0  0  0  0  0  0  0
   -9.8909    0.5241    3.1291 N   0  0  0  0  0  0  0  0  0  0  0  0
   -8.6681    0.3189    3.6523 C   0  0  0  0  0  0  0  0  0  0  0  0
   -8.5761    0.0026    4.9996 C   0  0  0  0  0  0  0  0  0  0  0  0
   -7.3472   -0.2216    5.6099 C   0  0  0  0  0  0  0  0  0  0  0  0
   -6.1867   -0.1274    4.8540 C   0  0  0  0  0  0  0  0  0  0  0  0
   -4.6173    1.4577    2.0498 C   0  0  0  0  0  0  0  0  0  0  0  0
   -3.4160    1.5448    1.3410 C   0  0  0  0  0  0  0  0  0  0  0  0
   -2.5352    0.4554    1.2868 C   0  0  0  0  0  0  0  0  0  0  0  0
   -1.3234    0.5272    0.5805 C   0  0  0  0  0  0  0  0  0  0  0  0
   -0.4420   -0.5657    0.5256 C   0  0  0  0  0  0  0  0  0  0  0  0
    0.7706   -0.4943   -0.1801 C   0  0  0  0  0  0  0  0  0  0  0  0
    1.6514   -1.5872   -0.2362 C   0  0  0  0  0  0  0  0  0  0  0  0
    2.8626   -1.5148   -0.9435 C   0  0  0  0  0  0  0  0  0  0  0  0
    3.7461   -2.6051   -0.9966 C   0  0  0  0  0  0  0  0  0  0  0  0
    4.9597   -2.5292   -1.7026 C   0  0  0  0  0  0  0  0  0  0  0  0
    8.0574   -2.4580   -2.2586 C   0  0  0  0  0  0  0  0  0  0  0  0
    7.8161   -1.4915   -1.3414 N   0  0  0  0  0  0  0  0  0  0  0  0
    8.7227   -0.5176   -1.1728 C   0  0  0  0  0  0  0  0  0  0  0  0
    8.4830    0.4848   -0.2488 C   0  0  0  0  0  0  0  0  0  0  0  0
    9.3815    1.5176   -0.0454 C   0  0  0  0  0  0  0  0  0  0  0  0
    9.0999    2.4727    0.8564 N   0  0  0  0  0  0  0  0  0  0  0  0
   10.0027    3.4560    1.0196 C   0  0  0  0  0  0  0  0  0  0  0  0
    9.7575    4.4669    1.9404 C   0  0  0  0  0  0  0  0  0  0  0  0
   10.6691    5.5043    2.1382 C   0  0  0  0  0  0  0  0  0  0  0  0
   12.5665    6.3324    1.5454 H   0  0  0  0  0  0  0  0  0  0  0  0
   13.0230    4.5393   -0.1020 H   0  0  0  0  0  0  0  0  0  0  0  0
   11.7313    0.5584   -2.2957 H   0  0  0  0  0  0  0  0  0  0  0  0
   10.4518   -3.3559   -4.5088 H   0  0  0  0  0  0  0  0  0  0  0  0
    8.8489   -5.1933   -4.9268 H   0  0  0  0  0  0  0  0  0  0  0  0
    6.7360   -5.2910   -3.6585 H   0  0  0  0  0  0  0  0  0  0  0  0
    6.1874   -5.6334   -1.0605 H   0  0  0  0  0  0  0  0  0  0  0  0
    4.0667   -5.8083    0.1453 H   0  0  0  0  0  0  0  0  0  0  0  0
    1.9417   -4.7924    0.8991 H   0  0  0  0  0  0  0  0  0  0  0  0
   -0.1610   -3.7735    1.6535 H   0  0  0  0  0  0  0  0  0  0  0  0
   -2.2568   -2.7532    2.4125 H   0  0  0  0  0  0  0  0  0  0  0  0
   -4.3569   -1.7364    3.1655 H   0  0  0  0  0  0  0  0  0  0  0  0
   -8.0470    1.3157   -0.9230 H   0  0  0  0  0  0  0  0  0  0  0  0
  -10.7005    2.3783   -4.6847 H   0  0  0  0  0  0  0  0  0  0  0  0
  -12.9223    2.7793   -5.7087 H   0  0  0  0  0  0  0  0  0  0  0  0
  -14.9713    2.6077   -4.3071 H   0  0  0  0  0  0  0  0  0  0  0  0
  -14.7675    2.0374   -1.9035 H   0  0  0  0  0  0  0  0  0  0  0  0
  -12.1023    0.9750    1.8517 H   0  0  0  0  0  0  0  0  0  0  0  0
   -9.4883   -0.0690    5.5879 H   0  0  0  0  0  0  0  0  0  0  0  0
   -7.2970   -0.4641    6.6683 H   0  0  0  0  0  0  0  0  0  0  0  0
   -5.2251   -0.2912    5.3386 H   0  0  0  0  0  0  0  0  0  0  0  0
   -5.2804    2.3208    2.0673 H   0  0  0  0  0  0  0  0  0  0  0  0
   -3.1772    2.4741    0.8289 H   0  0  0  0  0  0  0  0  0  0  0  0
   -1.0620    1.4494    0.0646 H   0  0  0  0  0  0  0  0  0  0  0  0
    1.0338    0.4283   -0.6946 H   0  0  0  0  0  0  0  0  0  0  0  0
    3.1265   -0.5920   -1.4576 H   0  0  0  0  0  0  0  0  0  0  0  0
    5.2134   -1.6056   -2.2216 H   0  0  0  0  0  0  0  0  0  0  0  0
    7.5629    0.4612    0.3298 H   0  0  0  0  0  0  0  0  0  0  0  0
    8.8350    4.4438    2.5156 H   0  0  0  0  0  0  0  0  0  0  0  0
   10.4564    6.2847    2.8642 H   0  0  0  0  0  0  0  0  0  0  0  0
  1  2  4  0
  2  3  4  0
  3  4  4  0
  4  5  4  0
  5  6  4  0
  6  7  4  0
  7  8  4  0
  8  9  4  0
  9 10  4  0
 10 11  4  0
 11 12  4  0
 12 13  4  0
 13 14  1  0
 14 15  4  0
 15 16  4  0
 16 17  4  0
 17 18  4  0
 18 19  4  0
 19 20  4  0
 20 21  4  0
 21 22  4  0
 22 23  4  0
 23 24  4  0
 24 25  4  0
 25 26  1  0
 26 27  4  0
 27 28  4  0
 28 29  4  0
 29 30  4  0
 30 31  4  0
 31 32  4  0
 32 33  4  0
 33 34  4  0
 34 35  4  0
 35 36  4  0
 36 37  4  0
 37 38  4  0
 38 39  4  0
 39 40  4  0
 40 41  4  0
 41 42  4  0
 42 43  4  0
 43 44  4  0
 44 45  4  0
 45 46  4  0
 46 47  4  0
 25 48  4  0
 48 49  4  0
 49 50  4  0
 50 51  4  0
 51 52  4  0
 52 53  4  0
 53 54  4  0
 54 55  4  0
 55 56  4  0
 56 57  4  0
 13 58  4  0
 58 59  4  0
 59 60  4  0
 60 61  4  0
 61 62  4  0
 62 63  4  0
 63 64  4  0
 64 65  4  0
 65 66  4  0
 66  1  4  0
 64  3  4  0
 62  5  4  0
 60  7  4  0
 58  9  4  0
 57 14  4  0
 56 17  4  0
 54 19  4  0
 52 21  4  0
 50 23  4  0
 47 26  4  0
 44 27  4  0
 42 29  4  0
 40 31  4  0
 38 33  4  0
  1 67  1  0
  2 68  1  0
  6 69  1  0
 10 70  1  0
 11 71  1  0
 12 72  1  0
 15 73  1  0
 16 74  1  0
 18 75  1  0
 20 76  1  0
 22 77  1  0
 24 78  1  0
 30 79  1  0
 34 80  1  0
 35 81  1  0
 36 82  1  0
 37 83  1  0
 41 84  1  0
 45 85  1  0
 46 86  1  0
 47 87  1  0
 48 88  1  0
 49 89  1  0
 51 90  1  0
 53 91  1  0
 55 92  1  0
 57 93  1  0
 61 94  1  0
 65 95  1  0
 66 96  1  0
M  END
