
     RDKit          3D

100114  0  0  0  0  0  0  0  0999 V2000
  -18.2687   -2.3591   -4.0122 C   0  0  0  0  0  0  0  0  0  0  0  0
  -16.9504   -2.7075   -3.7269 C   0  0  0  0  0  0  0  0  0  0  0  0
  -16.1078   -1.8063   -3.0515 C   0  0  0  0  0  0  0  0  0  0  0  0
  -14.7791   -2.1231   -2.7489 C   0  0  0  0  0  0  0  0  0  0  0  0
  -13.9723   -1.1992   -2.0755 C   0  0  0  0  0  0  0  0  0  0  0  0
  -12.6311   -1.4782   -1.7522 C   0  0  0  0  0  0  0  0  0  0  0  0
  -11.8347   -0.5613   -1.0852 C   0  0  0  0  0  0  0  0  0  0  0  0
  -10.5608   -0.8785   -0.8000 N   0  0  0  0  0  0  0  0  0  0  0  0
   -9.7900    0.0130   -0.1521 C   0  0  0  0  0  0  0  0  0  0  0  0
   -8.4729   -0.3151    0.1443 C   0  0  0  0  0  0  0  0  0  0  0  0
   -7.6056    0.5625    0.8205 C   0  0  0  0  0  0  0  0  0  0  0  0
   -6.2183    0.1727    1.1205 C   0  0  0  0  0  0  0  0  0  0  0  0
   -5.9351   -1.0216    1.7971 C   0  0  0  0  0  0  0  0  0  0  0  0
   -4.6181   -1.3924    2.0835 C   0  0  0  0  0  0  0  0  0  0  0  0
   -3.5439   -0.5773    1.6995 C   0  0  0  0  0  0  0  0  0  0  0  0
   -2.2147   -0.9351    1.9797 C   0  0  0  0  0  0  0  0  0  0  0  0
   -1.1391   -0.1179    1.5929 C   0  0  0  0  0  0  0  0  0  0  0  0
    0.1909   -0.4738    1.8730 C   0  0  0  0  0  0  0  0  0  0  0  0
    1.2664    0.3435    1.4857 C   0  0  0  0  0  0  0  0  0  0  0  0
    2.5963   -0.0122    1.7672 C   0  0  0  0  0  0  0  0  0  0  0  0
    3.6716    0.8050    1.3805 C   0  0  0  0  0  0  0  0  0  0  0  0
    5.0030    0.4499    1.6637 C   0  0  0  0  0  0  0  0  0  0  0  0
    6.0837    1.2620    1.2782 C   0  0  0  0  0  0  0  0  0  0  0  0
    7.4690    0.8740    1.5882 C   0  0  0  0  0  0  0  0  0  0  0  0
    7.8603    0.5876    2.9019 C   0  0  0  0  0  0  0  0  0  0  0  0
    9.1741    0.2166    3.1872 C   0  0  0  0  0  0  0  0  0  0  0  0
   10.1215    0.1248    2.1562 C   0  0  0  0  0  0  0  0  0  0  0  0
   11.4471   -0.2477    2.4034 C   0  0  0  0  0  0  0  0  0  0  0  0
   12.3611   -0.3312    1.3476 C   0  0  0  0  0  0  0  0  0  0  0  0
   13.7028   -0.7052    1.5513 C   0  0  0  0  0  0  0  0  0  0  0  0
   14.6050   -0.7887    0.5029 C   0  0  0  0  0  0  0  0  0  0  0  0
   15.8744   -1.1519    0.7521 N   0  0  0  0  0  0  0  0  0  0  0  0
   16.7462   -1.2314   -0.2689 C   0  0  0  0  0  0  0  0  0  0  0  0
   18.0593   -1.6062   -0.0169 C   0  0  0  0  0  0  0  0  0  0  0  0
   19.0065   -1.7048   -1.0407 C   0  0  0  0  0  0  0  0  0  0  0  0
   18.6400   -1.4234   -2.3516 C   0  0  0  0  0  0  0  0  0  0  0  0
   17.3292   -1.0451   -2.6329 C   0  0  0  0  0  0  0  0  0  0  0  0
   16.3811   -0.9477   -1.5987 C   0  0  0  0  0  0  0  0  0  0  0  0
   15.0565   -0.5710   -1.8443 C   0  0  0  0  0  0  0  0  0  0  0  0
   14.1430   -0.4857   -0.7878 C   0  0  0  0  0  0  0  0  0  0  0  0
   12.8014   -0.1111   -0.9912 C   0  0  0  0  0  0  0  0  0  0  0  0
   11.8991   -0.0286    0.0572 C   0  0  0  0  0  0  0  0  0  0  0  0
   10.6288    0.3324   -0.1910 N   0  0  0  0  0  0  0  0  0  0  0  0
    9.7549    0.4084    0.8288 C   0  0  0  0  0  0  0  0  0  0  0  0
    8.4393    0.7771    0.5741 C   0  0  0  0  0  0  0  0  0  0  0  0
    5.8014    2.4510    0.5923 C   0  0  0  0  0  0  0  0  0  0  0  0
    4.4840    2.8196    0.3039 C   0  0  0  0  0  0  0  0  0  0  0  0
    3.4099    2.0065    0.6928 C   0  0  0  0  0  0  0  0  0  0  0  0
    2.0807    2.3627    0.4116 C   0  0  0  0  0  0  0  0  0  0  0  0
    1.0057    1.5457    0.8004 C   0  0  0  0  0  0  0  0  0  0  0  0
   -0.3241    1.9016    0.5203 C   0  0  0  0  0  0  0  0  0  0  0  0
   -1.3996    1.0851    0.9086 C   0  0  0  0  0  0  0  0  0  0  0  0
   -2.7294    1.4426    0.6288 C   0  0  0  0  0  0  0  0  0  0  0  0
   -3.8056    0.6270    1.0168 C   0  0  0  0  0  0  0  0  0  0  0  0
   -5.1374    0.9853    0.7373 C   0  0  0  0  0  0  0  0  0  0  0  0
   -8.1042    1.8144    1.2015 C   0  0  0  0  0  0  0  0  0  0  0  0
   -9.4227    2.1709    0.9165 C   0  0  0  0  0  0  0  0  0  0  0  0
  -10.2671    1.2752    0.2420 C   0  0  0  0  0  0  0  0  0  0  0  0
  -11.5956    1.5949   -0.0601 C   0  0  0  0  0  0  0  0  0  0  0  0
  -12.4043    0.6724   -0.7335 C   0  0  0  0  0  0  0  0  0  0  0  0
  -13.7458    0.9514   -1.0570 C   0  0  0  0  0  0  0  0  0  0  0  0
  -14.5427    0.0344   -1.7239 C   0  0  0  0  0  0  0  0  0  0  0  0
  -15.8174    0.3505   -2.0086 N   0  0  0  0  0  0  0  0  0  0  0  0
  -16.5870   -0.5429   -2.6565 C   0  0  0  0  0  0  0  0  0  0  0  0
  -17.9051   -0.2215   -2.9535 C   0  0  0  0  0  0  0  0  0  0  0  0
  -18.7478   -1.1131   -3.6247 C   0  0  0  0  0  0  0  0  0  0  0  0
  -18.9184   -3.0568   -4.5342 H   0  0  0  0  0  0  0  0  0  0  0  0
  -16.5824   -3.6841   -4.0332 H   0  0  0  0  0  0  0  0  0  0  0  0
  -14.3723   -3.0895   -3.0377 H   0  0  0  0  0  0  0  0  0  0  0  0
  -12.1913   -2.4350   -2.0259 H   0  0  0  0  0  0  0  0  0  0  0  0
   -8.1101   -1.2907   -0.1752 H   0  0  0  0  0  0  0  0  0  0  0  0
   -6.7445   -1.6744    2.1191 H   0  0  0  0  0  0  0  0  0  0  0  0
   -4.4404   -2.3261    2.6126 H   0  0  0  0  0  0  0  0  0  0  0  0
   -2.0148   -1.8662    2.5070 H   0  0  0  0  0  0  0  0  0  0  0  0
    0.3941   -1.4036    2.4017 H   0  0  0  0  0  0  0  0  0  0  0  0
    2.7975   -0.9419    2.2965 H   0  0  0  0  0  0  0  0  0  0  0  0
    5.2043   -0.4849    2.1850 H   0  0  0  0  0  0  0  0  0  0  0  0
    7.1431    0.6628    3.7172 H   0  0  0  0  0  0  0  0  0  0  0  0
    9.4516    0.0023    4.2167 H   0  0  0  0  0  0  0  0  0  0  0  0
   11.7675   -0.4746    3.4178 H   0  0  0  0  0  0  0  0  0  0  0  0
   14.0583   -0.9395    2.5525 H   0  0  0  0  0  0  0  0  0  0  0  0
   18.3531   -1.8278    1.0064 H   0  0  0  0  0  0  0  0  0  0  0  0
   20.0262   -2.0010   -0.8083 H   0  0  0  0  0  0  0  0  0  0  0  0
   19.3712   -1.4980   -3.1522 H   0  0  0  0  0  0  0  0  0  0  0  0
   17.0501   -0.8266   -3.6611 H   0  0  0  0  0  0  0  0  0  0  0  0
   14.7361   -0.3441   -2.8586 H   0  0  0  0  0  0  0  0  0  0  0  0
   12.4457    0.1226   -1.9925 H   0  0  0  0  0  0  0  0  0  0  0  0
    8.1612    0.9832   -0.4582 H   0  0  0  0  0  0  0  0  0  0  0  0
    6.6097    3.1114    0.2838 H   0  0  0  0  0  0  0  0  0  0  0  0
    4.3048    3.7521   -0.2272 H   0  0  0  0  0  0  0  0  0  0  0  0
    1.8792    3.2916   -0.1192 H   0  0  0  0  0  0  0  0  0  0  0  0
   -0.5258    2.8306   -0.0100 H   0  0  0  0  0  0  0  0  0  0  0  0
   -2.9305    2.3721    0.0990 H   0  0  0  0  0  0  0  0  0  0  0  0
   -5.3354    1.9108    0.1984 H   0  0  0  0  0  0  0  0  0  0  0  0
   -7.4701    2.5181    1.7377 H   0  0  0  0  0  0  0  0  0  0  0  0
   -9.7858    3.1476    1.2278 H   0  0  0  0  0  0  0  0  0  0  0  0
  -12.0008    2.5619    0.2292 H   0  0  0  0  0  0  0  0  0  0  0  0
  -14.1858    1.9082   -0.7836 H   0  0  0  0  0  0  0  0  0  0  0  0
  -18.2871    0.7515   -2.6535 H   0  0  0  0  0  0  0  0  0  0  0  0
  -19.7744   -0.8291   -3.8412 H   0  0  0  0  0  0  0  0  0  0  0  0
  1  2  4  0
  2  3  4  0
  3  4  4  0
  4  5  4  0
  5  6  4  0
  6  7  4  0
  7  8  4  0
  8  9  4  0
  9 10  4  0
 10 11  4  0
 11 12  1  0
 12 13  4  0
 13 14  4  0
 14 15  4  0
 15 16  4  0
 16 17  4  0
 17 18  4  0
 18 19  4  0
 19 20  4  0
 20 21  4  0
 21 22  4  0
 22 23  4  0
 23 24  1  0
 24 25  4  0
 25 26  4  0
 26 27  4  0
 27 28  4  0
 28 29  4  0
 29 30  4  0
 30 31  4  0
 31 32  4  0
 32 33  4  0
 33 34  4  0
 34 35  4  0
 35 36  4  0
 36 37  4  0
 37 38  4  0
 38 39  4  0
 39 40  4  0
 40 41  4  0
 41 42  4  0
 42 43  4  0
 43 44  4  0
 44 45  4  0
 23 46  4  0
 46 47  4  0
 47 48  4  0
 48 49  4  0
 49 50  4  0
 50 51  4  0
 51 52  4  0
 52 53  4  0
 53 54  4  0
 54 55  4  0
 11 56  4  0
 56 57  4  0
 57 58  4  0
 58 59  4  0
 59 60  4  0
 60 61  4  0
 61 62  4  0
 62 63  4  0
 63 64  4  0
 64 65  4  0
 65 66  4  0
 66  1  4  0
 64  3  4  0
 62  5  4  0
 60  7  4  0
 58  9  4  0
 55 12  4  0
 54 15  4  0
 52 17  4  0
 50 19  4  0
 48 21  4  0
 45 24  4  0
 44 27  4  0
 42 29  4  0
 40 31  4  0
 38 33  4  0
  1 67  1  0
  2 68  1  0
  4 69  1  0
  6 70  1  0
 10 71  1  0
 13 72  1  0
 14 73  1  0
 16 74  1  0
 18 75  1  0
 20 76  1  0
 22 77  1  0
 25 78  1  0
 26 79  1  0
 28 80  1  0
 30 81  1  0
 34 82  1  0
 35 83  1  0
 36 84  1  0
 37 85  1  0
 39 86  1  0
 41 87  1  0
 45 88  1  0
 46 89  1  0
 47 90  1  0
 49 91  1  0
 51 92  1  0
 53 93  1  0
 55 94  1  0
 56 95  1  0
 57 96  1  0
 59 97  1  0
 61 98  1  0
 65 99  1  0
 66100  1  0
M  END
