
     RDKit          3D

100114  0  0  0  0  0  0  0  0999 V2000
    9.9987    0.1854    7.6314 C   0  0  0  0  0  0  0  0  0  0  0  0
    8.7514   -0.4175    7.5190 C   0  0  0  0  0  0  0  0  0  0  0  0
    8.1008   -0.4448    6.2817 C   0  0  0  0  0  0  0  0  0  0  0  0
    8.6665    0.1180    5.1454 C   0  0  0  0  0  0  0  0  0  0  0  0
    7.9985    0.0644    3.9798 N   0  0  0  0  0  0  0  0  0  0  0  0
    8.5499    0.6104    2.8836 C   0  0  0  0  0  0  0  0  0  0  0  0
    7.8653    0.5577    1.6809 C   0  0  0  0  0  0  0  0  0  0  0  0
    8.3954    1.1148    0.5024 C   0  0  0  0  0  0  0  0  0  0  0  0
    7.7073    1.0661   -0.7148 C   0  0  0  0  0  0  0  0  0  0  0  0
    8.2543    1.6342   -1.8825 C   0  0  0  0  0  0  0  0  0  0  0  0
    9.5225    2.2364   -1.7467 C   0  0  0  0  0  0  0  0  0  0  0  0
   10.1918    2.2877   -0.5816 N   0  0  0  0  0  0  0  0  0  0  0  0
    9.6466    1.7437    0.5174 C   0  0  0  0  0  0  0  0  0  0  0  0
   10.3332    1.7968    1.7199 C   0  0  0  0  0  0  0  0  0  0  0  0
    9.8042    1.2410    2.8998 C   0  0  0  0  0  0  0  0  0  0  0  0
   10.4931    1.2923    4.1166 C   0  0  0  0  0  0  0  0  0  0  0  0
    9.9300    0.7274    5.2657 C   0  0  0  0  0  0  0  0  0  0  0  0
   10.5896    0.7580    6.5073 C   0  0  0  0  0  0  0  0  0  0  0  0
   10.1160    2.8050   -2.8633 C   0  0  0  0  0  0  0  0  0  0  0  0
    9.4958    2.7982   -4.1116 C   0  0  0  0  0  0  0  0  0  0  0  0
    8.2456    2.2100   -4.2538 C   0  0  0  0  0  0  0  0  0  0  0  0
    7.6043    1.6232   -3.1517 C   0  0  0  0  0  0  0  0  0  0  0  0
    6.2767    1.0223   -3.3493 C   0  0  0  0  0  0  0  0  0  0  0  0
    6.1467   -0.2687   -3.8741 C   0  0  0  0  0  0  0  0  0  0  0  0
    4.8848   -0.8424   -4.0472 C   0  0  0  0  0  0  0  0  0  0  0  0
    3.7223   -0.1373   -3.7006 C   0  0  0  0  0  0  0  0  0  0  0  0
    2.4469   -0.7020   -3.8639 C   0  0  0  0  0  0  0  0  0  0  0  0
    1.2832    0.0035   -3.5139 C   0  0  0  0  0  0  0  0  0  0  0  0
    0.0067   -0.5607   -3.6762 C   0  0  0  0  0  0  0  0  0  0  0  0
   -1.1572    0.1439   -3.3251 C   0  0  0  0  0  0  0  0  0  0  0  0
   -2.4336   -0.4208   -3.4878 C   0  0  0  0  0  0  0  0  0  0  0  0
   -3.5972    0.2834   -3.1354 C   0  0  0  0  0  0  0  0  0  0  0  0
   -4.8747   -0.2819   -3.2967 C   0  0  0  0  0  0  0  0  0  0  0  0
   -6.0367    0.4232   -2.9453 C   0  0  0  0  0  0  0  0  0  0  0  0
   -7.3657   -0.1809   -3.1277 C   0  0  0  0  0  0  0  0  0  0  0  0
   -7.9271   -0.1803   -4.4150 C   0  0  0  0  0  0  0  0  0  0  0  0
   -9.1835   -0.7283   -4.6385 C   0  0  0  0  0  0  0  0  0  0  0  0
   -9.8916   -1.2826   -3.5740 C   0  0  0  0  0  0  0  0  0  0  0  0
   -9.3781   -1.3086   -2.2865 C   0  0  0  0  0  0  0  0  0  0  0  0
  -10.1312   -1.8641   -1.3215 N   0  0  0  0  0  0  0  0  0  0  0  0
   -9.6652   -1.9089   -0.0641 C   0  0  0  0  0  0  0  0  0  0  0  0
  -10.4429   -2.4779    0.9317 C   0  0  0  0  0  0  0  0  0  0  0  0
  -10.0020   -2.5483    2.2662 C   0  0  0  0  0  0  0  0  0  0  0  0
  -10.7847   -3.1203    3.2750 C   0  0  0  0  0  0  0  0  0  0  0  0
  -10.3092   -3.1686    4.5895 C   0  0  0  0  0  0  0  0  0  0  0  0
  -11.0650   -3.7346    5.6317 C   0  0  0  0  0  0  0  0  0  0  0  0
  -10.5600   -3.7655    6.9296 C   0  0  0  0  0  0  0  0  0  0  0  0
   -9.3027   -3.2329    7.1895 C   0  0  0  0  0  0  0  0  0  0  0  0
   -8.5562   -2.6716    6.1489 C   0  0  0  0  0  0  0  0  0  0  0  0
   -9.0351   -2.6275    4.8463 C   0  0  0  0  0  0  0  0  0  0  0  0
   -8.2769   -2.0766    3.8821 N   0  0  0  0  0  0  0  0  0  0  0  0
   -8.7443   -2.0366    2.6231 C   0  0  0  0  0  0  0  0  0  0  0  0
   -7.9673   -1.4704    1.6252 C   0  0  0  0  0  0  0  0  0  0  0  0
   -8.4101   -1.3991    0.2907 C   0  0  0  0  0  0  0  0  0  0  0  0
   -7.6323   -0.8251   -0.7222 C   0  0  0  0  0  0  0  0  0  0  0  0
   -8.1010   -0.7576   -2.0499 C   0  0  0  0  0  0  0  0  0  0  0  0
   -5.9041    1.7179   -2.4286 C   0  0  0  0  0  0  0  0  0  0  0  0
   -4.6416    2.2916   -2.2593 C   0  0  0  0  0  0  0  0  0  0  0  0
   -3.4804    1.5861   -2.6088 C   0  0  0  0  0  0  0  0  0  0  0  0
   -2.2046    2.1506   -2.4468 C   0  0  0  0  0  0  0  0  0  0  0  0
   -1.0416    1.4449   -2.7983 C   0  0  0  0  0  0  0  0  0  0  0  0
    0.2347    2.0093   -2.6362 C   0  0  0  0  0  0  0  0  0  0  0  0
    1.3982    1.3048   -2.9880 C   0  0  0  0  0  0  0  0  0  0  0  0
    2.6739    1.8705   -2.8254 C   0  0  0  0  0  0  0  0  0  0  0  0
    3.8374    1.1659   -3.1751 C   0  0  0  0  0  0  0  0  0  0  0  0
    5.1134    1.7308   -3.0089 C   0  0  0  0  0  0  0  0  0  0  0  0
   10.5101    0.2102    8.5901 H   0  0  0  0  0  0  0  0  0  0  0  0
    8.2800   -0.8677    8.3888 H   0  0  0  0  0  0  0  0  0  0  0  0
    7.1251   -0.9184    6.2015 H   0  0  0  0  0  0  0  0  0  0  0  0
    6.8928    0.0698    1.6649 H   0  0  0  0  0  0  0  0  0  0  0  0
    6.7354    0.5776   -0.7503 H   0  0  0  0  0  0  0  0  0  0  0  0
   11.3054    2.2848    1.7339 H   0  0  0  0  0  0  0  0  0  0  0  0
   11.4676    1.7722    4.1693 H   0  0  0  0  0  0  0  0  0  0  0  0
   11.5658    1.2278    6.6037 H   0  0  0  0  0  0  0  0  0  0  0  0
   11.0947    3.2683   -2.7577 H   0  0  0  0  0  0  0  0  0  0  0  0
    9.9887    3.2532   -4.9665 H   0  0  0  0  0  0  0  0  0  0  0  0
    7.7632    2.2122   -5.2297 H   0  0  0  0  0  0  0  0  0  0  0  0
    7.0322   -0.8405   -4.1450 H   0  0  0  0  0  0  0  0  0  0  0  0
    4.8179   -1.8497   -4.4525 H   0  0  0  0  0  0  0  0  0  0  0  0
    2.3587   -1.7081   -4.2703 H   0  0  0  0  0  0  0  0  0  0  0  0
   -0.0826   -1.5667   -4.0829 H   0  0  0  0  0  0  0  0  0  0  0  0
   -2.5226   -1.4261   -3.8962 H   0  0  0  0  0  0  0  0  0  0  0  0
   -4.9704   -1.2890   -3.7002 H   0  0  0  0  0  0  0  0  0  0  0  0
   -7.3811    0.2573   -5.2491 H   0  0  0  0  0  0  0  0  0  0  0  0
   -9.6150   -0.7235   -5.6357 H   0  0  0  0  0  0  0  0  0  0  0  0
  -10.8764   -1.7085   -3.7541 H   0  0  0  0  0  0  0  0  0  0  0  0
  -11.4179   -2.8746    0.6568 H   0  0  0  0  0  0  0  0  0  0  0  0
  -11.7646   -3.5277    3.0370 H   0  0  0  0  0  0  0  0  0  0  0  0
  -12.0496   -4.1533    5.4364 H   0  0  0  0  0  0  0  0  0  0  0  0
  -11.1456   -4.2034    7.7337 H   0  0  0  0  0  0  0  0  0  0  0  0
   -8.8976   -3.2511    8.1980 H   0  0  0  0  0  0  0  0  0  0  0  0
   -7.5733   -2.2569    6.3600 H   0  0  0  0  0  0  0  0  0  0  0  0
   -6.9916   -1.0735    1.8982 H   0  0  0  0  0  0  0  0  0  0  0  0
   -6.6507   -0.4281   -0.4708 H   0  0  0  0  0  0  0  0  0  0  0  0
   -6.7885    2.2897   -2.1537 H   0  0  0  0  0  0  0  0  0  0  0  0
   -4.5736    3.2980   -1.8521 H   0  0  0  0  0  0  0  0  0  0  0  0
   -2.1151    3.1574   -2.0423 H   0  0  0  0  0  0  0  0  0  0  0  0
    0.3248    3.0146   -2.2282 H   0  0  0  0  0  0  0  0  0  0  0  0
    2.7633    2.8757   -2.4168 H   0  0  0  0  0  0  0  0  0  0  0  0
    5.2088    2.7367   -2.6021 H   0  0  0  0  0  0  0  0  0  0  0  0
  1  2  4  0
  2  3  4  0
  3  4  4  0
  4  5  4  0
  5  6  4  0
  6  7  4  0
  7  8  4  0
  8  9  4  0
  9 10  4  0
 10 11  4  0
 11 12  4  0
 12 13  4  0
 13 14  4  0
 14 15  4  0
 15 16  4  0
 16 17  4  0
 17 18  4  0
 11 19  4  0
 19 20  4  0
 20 21  4  0
 21 22  4  0
 22 23  1  0
 23 24  4  0
 24 25  4  0
 25 26  4  0
 26 27  4  0
 27 28  4  0
 28 29  4  0
 29 30  4  0
 30 31  4  0
 31 32  4  0
 32 33  4  0
 33 34  4  0
 34 35  1  0
 35 36  4  0
 36 37  4  0
 37 38  4  0
 38 39  4  0
 39 40  4  0
 40 41  4  0
 41 42  4  0
 42 43  4  0
 43 44  4  0
 44 45  4  0
 45 46  4  0
 46 47  4  0
 47 48  4  0
 48 49  4  0
 49 50  4  0
 50 51  4  0
 51 52  4  0
 52 53  4  0
 53 54  4  0
 54 55  4  0
 55 56  4  0
 34 57  4  0
 57 58  4  0
 58 59  4  0
 59 60  4  0
 60 61  4  0
 61 62  4  0
 62 63  4  0
 63 64  4  0
 64 65  4  0
 65 66  4  0
 18  1  4  0
 66 23  4  0
 17  4  4  0
 65 26  4  0
 15  6  4  0
 63 28  4  0
 13  8  4  0
 61 30  4  0
 22 10  4  0
 59 32  4  0
 56 35  4  0
 56 39  4  0
 54 41  4  0
 52 43  4  0
 50 45  4  0
  1 67  1  0
  2 68  1  0
  3 69  1  0
  7 70  1  0
  9 71  1  0
 14 72  1  0
 16 73  1  0
 18 74  1  0
 19 75  1  0
 20 76  1  0
 21 77  1  0
 24 78  1  0
 25 79  1  0
 27 80  1  0
 29 81  1  0
 31 82  1  0
 33 83  1  0
 36 84  1  0
 37 85  1  0
 38 86  1  0
 42 87  1  0
 44 88  1  0
 46 89  1  0
 47 90  1  0
 48 91  1  0
 49 92  1  0
 53 93  1  0
 55 94  1  0
 57 95  1  0
 58 96  1  0
 60 97  1  0
 62 98  1  0
 64 99  1  0
 66100  1  0
M  END
