
     RDKit          3D

100114  0  0  0  0  0  0  0  0999 V2000
   10.9958   -2.2718   -6.8436 C   0  0  0  0  0  0  0  0  0  0  0  0
   10.0715   -2.1539   -5.8079 C   0  0  0  0  0  0  0  0  0  0  0  0
   10.2842   -1.2310   -4.7682 C   0  0  0  0  0  0  0  0  0  0  0  0
    9.3774   -1.0863   -3.7129 C   0  0  0  0  0  0  0  0  0  0  0  0
    9.6251   -0.1567   -2.6969 C   0  0  0  0  0  0  0  0  0  0  0  0
    8.7398    0.0203   -1.6174 C   0  0  0  0  0  0  0  0  0  0  0  0
    8.9893    0.9420   -0.6136 C   0  0  0  0  0  0  0  0  0  0  0  0
    8.1143    1.0713    0.3954 N   0  0  0  0  0  0  0  0  0  0  0  0
    8.3351    1.9662    1.3868 C   0  0  0  0  0  0  0  0  0  0  0  0
    7.4235    2.1193    2.4524 C   0  0  0  0  0  0  0  0  0  0  0  0
    6.1941    1.3038    2.5416 C   0  0  0  0  0  0  0  0  0  0  0  0
    6.2586   -0.0905    2.6659 C   0  0  0  0  0  0  0  0  0  0  0  0
    5.0952   -0.8586    2.7651 C   0  0  0  0  0  0  0  0  0  0  0  0
    3.8317   -0.2512    2.7424 C   0  0  0  0  0  0  0  0  0  0  0  0
    2.6529   -1.0086    2.8398 C   0  0  0  0  0  0  0  0  0  0  0  0
    1.3869   -0.3998    2.8130 C   0  0  0  0  0  0  0  0  0  0  0  0
    0.2068   -1.1564    2.9099 C   0  0  0  0  0  0  0  0  0  0  0  0
   -1.0591   -0.5476    2.8820 C   0  0  0  0  0  0  0  0  0  0  0  0
   -2.2391   -1.3043    2.9800 C   0  0  0  0  0  0  0  0  0  0  0  0
   -3.5050   -0.6954    2.9545 C   0  0  0  0  0  0  0  0  0  0  0  0
   -4.6865   -1.4525    3.0569 C   0  0  0  0  0  0  0  0  0  0  0  0
   -5.9564   -0.8490    3.0339 C   0  0  0  0  0  0  0  0  0  0  0  0
   -7.1848   -1.6612    3.1721 C   0  0  0  0  0  0  0  0  0  0  0  0
   -8.1820   -1.6757    2.1735 C   0  0  0  0  0  0  0  0  0  0  0  0
   -8.0534   -0.9518    1.0364 N   0  0  0  0  0  0  0  0  0  0  0  0
   -9.0104   -0.9821    0.0960 C   0  0  0  0  0  0  0  0  0  0  0  0
   -8.8546   -0.2345   -1.0601 C   0  0  0  0  0  0  0  0  0  0  0  0
   -9.8291   -0.2294   -2.0758 C   0  0  0  0  0  0  0  0  0  0  0  0
   -9.6772    0.5237   -3.2453 C   0  0  0  0  0  0  0  0  0  0  0  0
  -10.6712    0.5003   -4.2295 C   0  0  0  0  0  0  0  0  0  0  0  0
  -10.5567    1.2429   -5.4185 C   0  0  0  0  0  0  0  0  0  0  0  0
  -11.5665    1.1961   -6.3771 C   0  0  0  0  0  0  0  0  0  0  0  0
  -12.6902    0.4096   -6.1517 C   0  0  0  0  0  0  0  0  0  0  0  0
  -12.7982   -0.3263   -4.9677 C   0  0  0  0  0  0  0  0  0  0  0  0
  -11.8070   -0.2979   -3.9957 C   0  0  0  0  0  0  0  0  0  0  0  0
  -11.9602   -1.0247   -2.8743 N   0  0  0  0  0  0  0  0  0  0  0  0
  -10.9983   -0.9940   -1.9370 C   0  0  0  0  0  0  0  0  0  0  0  0
  -11.1511   -1.7418   -0.7806 C   0  0  0  0  0  0  0  0  0  0  0  0
  -10.1752   -1.7459    0.2340 C   0  0  0  0  0  0  0  0  0  0  0  0
  -10.3203   -2.4984    1.4025 C   0  0  0  0  0  0  0  0  0  0  0  0
   -9.3262   -2.4757    2.3874 C   0  0  0  0  0  0  0  0  0  0  0  0
   -9.4699   -3.2352    3.5592 C   0  0  0  0  0  0  0  0  0  0  0  0
   -8.4840   -3.2137    4.5361 C   0  0  0  0  0  0  0  0  0  0  0  0
   -7.3509   -2.4325    4.3431 C   0  0  0  0  0  0  0  0  0  0  0  0
   -6.0194    0.5443    2.8999 C   0  0  0  0  0  0  0  0  0  0  0  0
   -4.8557    1.3116    2.7952 C   0  0  0  0  0  0  0  0  0  0  0  0
   -3.5919    0.7049    2.8237 C   0  0  0  0  0  0  0  0  0  0  0  0
   -2.4125    1.4613    2.7234 C   0  0  0  0  0  0  0  0  0  0  0  0
   -1.1471    0.8520    2.7528 C   0  0  0  0  0  0  0  0  0  0  0  0
    0.0327    1.6086    2.6560 C   0  0  0  0  0  0  0  0  0  0  0  0
    1.2985    0.9999    2.6850 C   0  0  0  0  0  0  0  0  0  0  0  0
    2.4779    1.7574    2.5883 C   0  0  0  0  0  0  0  0  0  0  0  0
    3.7441    1.1496    2.6162 C   0  0  0  0  0  0  0  0  0  0  0  0
    4.9250    1.9078    2.5187 C   0  0  0  0  0  0  0  0  0  0  0  0
    7.6790    3.0661    3.4674 C   0  0  0  0  0  0  0  0  0  0  0  0
    8.8207    3.8583    3.4401 C   0  0  0  0  0  0  0  0  0  0  0  0
    9.7244    3.7150    2.3956 C   0  0  0  0  0  0  0  0  0  0  0  0
    9.4893    2.7797    1.3753 C   0  0  0  0  0  0  0  0  0  0  0  0
   10.3979    2.6350    0.3202 C   0  0  0  0  0  0  0  0  0  0  0  0
   10.1586    1.7069   -0.6972 C   0  0  0  0  0  0  0  0  0  0  0  0
   11.0456    1.5309   -1.7765 C   0  0  0  0  0  0  0  0  0  0  0  0
   10.7987    0.6090   -2.7814 C   0  0  0  0  0  0  0  0  0  0  0  0
   11.6774    0.4795   -3.7896 N   0  0  0  0  0  0  0  0  0  0  0  0
   11.4325   -0.4166   -4.7626 C   0  0  0  0  0  0  0  0  0  0  0  0
   12.3372   -0.5548   -5.8071 C   0  0  0  0  0  0  0  0  0  0  0  0
   12.1316   -1.4705   -6.8437 C   0  0  0  0  0  0  0  0  0  0  0  0
   10.8298   -2.9854   -7.6465 H   0  0  0  0  0  0  0  0  0  0  0  0
    9.1850   -2.7841   -5.8143 H   0  0  0  0  0  0  0  0  0  0  0  0
    8.4782   -1.6973   -3.6821 H   0  0  0  0  0  0  0  0  0  0  0  0
    7.8296   -0.5725   -1.5529 H   0  0  0  0  0  0  0  0  0  0  0  0
    7.2253   -0.5906    2.6789 H   0  0  0  0  0  0  0  0  0  0  0  0
    5.1871   -1.9383    2.8578 H   0  0  0  0  0  0  0  0  0  0  0  0
    2.7229   -2.0905    2.9359 H   0  0  0  0  0  0  0  0  0  0  0  0
    0.2759   -2.2383    3.0079 H   0  0  0  0  0  0  0  0  0  0  0  0
   -2.1718   -2.3863    3.0779 H   0  0  0  0  0  0  0  0  0  0  0  0
   -4.6191   -2.5355    3.1471 H   0  0  0  0  0  0  0  0  0  0  0  0
   -7.9479    0.3573   -1.1684 H   0  0  0  0  0  0  0  0  0  0  0  0
   -8.7845    1.1280   -3.3894 H   0  0  0  0  0  0  0  0  0  0  0  0
   -9.6801    1.8601   -5.6014 H   0  0  0  0  0  0  0  0  0  0  0  0
  -11.4757    1.7709   -7.2951 H   0  0  0  0  0  0  0  0  0  0  0  0
  -13.4850    0.3644   -6.8915 H   0  0  0  0  0  0  0  0  0  0  0  0
  -13.6800   -0.9395   -4.7975 H   0  0  0  0  0  0  0  0  0  0  0  0
  -12.0557   -2.3360   -0.6707 H   0  0  0  0  0  0  0  0  0  0  0  0
  -11.2118   -3.1059    1.5441 H   0  0  0  0  0  0  0  0  0  0  0  0
  -10.3546   -3.8485    3.7168 H   0  0  0  0  0  0  0  0  0  0  0  0
   -8.5975   -3.7989    5.4449 H   0  0  0  0  0  0  0  0  0  0  0  0
   -6.5874   -2.4111    5.1194 H   0  0  0  0  0  0  0  0  0  0  0  0
   -6.9858    1.0443    2.8701 H   0  0  0  0  0  0  0  0  0  0  0  0
   -4.9494    2.3898    2.6891 H   0  0  0  0  0  0  0  0  0  0  0  0
   -2.4817    2.5427    2.6204 H   0  0  0  0  0  0  0  0  0  0  0  0
   -0.0352    2.6904    2.5559 H   0  0  0  0  0  0  0  0  0  0  0  0
    2.4099    2.8391    2.4874 H   0  0  0  0  0  0  0  0  0  0  0  0
    4.8570    2.9890    2.4103 H   0  0  0  0  0  0  0  0  0  0  0  0
    6.9800    3.1758    4.2951 H   0  0  0  0  0  0  0  0  0  0  0  0
    9.0048    4.5805    4.2311 H   0  0  0  0  0  0  0  0  0  0  0  0
   10.6163    4.3381    2.3811 H   0  0  0  0  0  0  0  0  0  0  0  0
   11.2958    3.2487    0.2885 H   0  0  0  0  0  0  0  0  0  0  0  0
   11.9540    2.1264   -1.8397 H   0  0  0  0  0  0  0  0  0  0  0  0
   13.2281    0.0688   -5.8137 H   0  0  0  0  0  0  0  0  0  0  0  0
   12.8602   -1.5528   -7.6460 H   0  0  0  0  0  0  0  0  0  0  0  0
  1  2  4  0
  2  3  4  0
  3  4  4  0
  4  5  4  0
  5  6  4  0
  6  7  4  0
  7  8  4  0
  8  9  4  0
  9 10  4  0
 10 11  1  0
 11 12  4  0
 12 13  4  0
 13 14  4  0
 14 15  4  0
 15 16  4  0
 16 17  4  0
 17 18  4  0
 18 19  4  0
 19 20  4  0
 20 21  4  0
 21 22  4  0
 22 23  1  0
 23 24  4  0
 24 25  4  0
 25 26  4  0
 26 27  4  0
 27 28  4  0
 28 29  4  0
 29 30  4  0
 30 31  4  0
 31 32  4  0
 32 33  4  0
 33 34  4  0
 34 35  4  0
 35 36  4  0
 36 37  4  0
 37 38  4  0
 38 39  4  0
 39 40  4  0
 40 41  4  0
 41 42  4  0
 42 43  4  0
 43 44  4  0
 22 45  4  0
 45 46  4  0
 46 47  4  0
 47 48  4  0
 48 49  4  0
 49 50  4  0
 50 51  4  0
 51 52  4  0
 52 53  4  0
 53 54  4  0
 10 55  4  0
 55 56  4  0
 56 57  4  0
 57 58  4  0
 58 59  4  0
 59 60  4  0
 60 61  4  0
 61 62  4  0
 62 63  4  0
 63 64  4  0
 64 65  4  0
 65 66  4  0
 66  1  4  0
 64  3  4  0
 62  5  4  0
 60  7  4  0
 58  9  4  0
 54 11  4  0
 53 14  4  0
 51 16  4  0
 49 18  4  0
 47 20  4  0
 44 23  4  0
 41 24  4  0
 39 26  4  0
 37 28  4  0
 35 30  4  0
  1 67  1  0
  2 68  1  0
  4 69  1  0
  6 70  1  0
 12 71  1  0
 13 72  1  0
 15 73  1  0
 17 74  1  0
 19 75  1  0
 21 76  1  0
 27 77  1  0
 29 78  1  0
 31 79  1  0
 32 80  1  0
 33 81  1  0
 34 82  1  0
 38 83  1  0
 40 84  1  0
 42 85  1  0
 43 86  1  0
 44 87  1  0
 45 88  1  0
 46 89  1  0
 48 90  1  0
 50 91  1  0
 52 92  1  0
 54 93  1  0
 55 94  1  0
 56 95  1  0
 57 96  1  0
 59 97  1  0
 61 98  1  0
 65 99  1  0
 66100  1  0
M  END
