
     RDKit          3D

100114  0  0  0  0  0  0  0  0999 V2000
  -11.1865   -0.9447   -7.1256 C   0  0  0  0  0  0  0  0  0  0  0  0
  -12.3214   -1.6499   -6.7429 C   0  0  0  0  0  0  0  0  0  0  0  0
  -12.5017   -2.0039   -5.4023 C   0  0  0  0  0  0  0  0  0  0  0  0
  -11.5721   -1.6702   -4.4264 C   0  0  0  0  0  0  0  0  0  0  0  0
  -11.7937   -2.0352   -3.1510 N   0  0  0  0  0  0  0  0  0  0  0  0
  -10.8912   -1.7102   -2.2106 C   0  0  0  0  0  0  0  0  0  0  0  0
  -11.1144   -2.0853   -0.8956 C   0  0  0  0  0  0  0  0  0  0  0  0
  -10.2022   -1.7712    0.1295 C   0  0  0  0  0  0  0  0  0  0  0  0
  -10.4176   -2.1473    1.4579 C   0  0  0  0  0  0  0  0  0  0  0  0
   -9.4849   -1.8169    2.4475 C   0  0  0  0  0  0  0  0  0  0  0  0
   -9.6988   -2.1994    3.7811 C   0  0  0  0  0  0  0  0  0  0  0  0
   -8.7732   -1.8731    4.7626 C   0  0  0  0  0  0  0  0  0  0  0  0
   -7.6305   -1.1636    4.4124 C   0  0  0  0  0  0  0  0  0  0  0  0
   -7.3942   -0.7691    3.0776 C   0  0  0  0  0  0  0  0  0  0  0  0
   -6.1600   -0.0117    2.7759 C   0  0  0  0  0  0  0  0  0  0  0  0
   -6.2160    1.2824    2.2416 C   0  0  0  0  0  0  0  0  0  0  0  0
   -5.0483    2.0063    1.9831 C   0  0  0  0  0  0  0  0  0  0  0  0
   -3.7876    1.4552    2.2540 C   0  0  0  0  0  0  0  0  0  0  0  0
   -2.6047    2.1713    2.0046 C   0  0  0  0  0  0  0  0  0  0  0  0
   -1.3418    1.6181    2.2759 C   0  0  0  0  0  0  0  0  0  0  0  0
   -0.1580    2.3343    2.0289 C   0  0  0  0  0  0  0  0  0  0  0  0
    1.1050    1.7817    2.3014 C   0  0  0  0  0  0  0  0  0  0  0  0
    2.2886    2.4989    2.0556 C   0  0  0  0  0  0  0  0  0  0  0  0
    3.5512    1.9466    2.3287 C   0  0  0  0  0  0  0  0  0  0  0  0
    4.7362    2.6641    2.0830 C   0  0  0  0  0  0  0  0  0  0  0  0
    6.0024    2.1152    2.3527 C   0  0  0  0  0  0  0  0  0  0  0  0
    7.2351    2.8935    2.1049 C   0  0  0  0  0  0  0  0  0  0  0  0
    7.4080    4.1154    2.7905 C   0  0  0  0  0  0  0  0  0  0  0  0
    8.5458    4.8910    2.6028 C   0  0  0  0  0  0  0  0  0  0  0  0
    9.5295    4.4553    1.7255 C   0  0  0  0  0  0  0  0  0  0  0  0
    9.3789    3.2431    1.0334 C   0  0  0  0  0  0  0  0  0  0  0  0
   10.3698    2.8039    0.1475 C   0  0  0  0  0  0  0  0  0  0  0  0
   10.2164    1.5995   -0.5450 C   0  0  0  0  0  0  0  0  0  0  0  0
   11.1881    1.1225   -1.4456 C   0  0  0  0  0  0  0  0  0  0  0  0
   11.0261   -0.0722   -2.1291 C   0  0  0  0  0  0  0  0  0  0  0  0
   11.9836   -0.4832   -2.9775 N   0  0  0  0  0  0  0  0  0  0  0  0
   11.8208   -1.6431   -3.6392 C   0  0  0  0  0  0  0  0  0  0  0  0
   12.8071   -2.0725   -4.5177 C   0  0  0  0  0  0  0  0  0  0  0  0
   12.6884   -3.2696   -5.2307 C   0  0  0  0  0  0  0  0  0  0  0  0
   11.5589   -4.0629   -5.0672 C   0  0  0  0  0  0  0  0  0  0  0  0
   10.5539   -3.6561   -4.1922 C   0  0  0  0  0  0  0  0  0  0  0  0
   10.6791   -2.4510   -3.4778 C   0  0  0  0  0  0  0  0  0  0  0  0
    9.6900   -2.0119   -2.5912 C   0  0  0  0  0  0  0  0  0  0  0  0
    9.8520   -0.8067   -1.8992 C   0  0  0  0  0  0  0  0  0  0  0  0
    8.8821   -0.3286   -0.9983 C   0  0  0  0  0  0  0  0  0  0  0  0
    9.0468    0.8657   -0.3155 C   0  0  0  0  0  0  0  0  0  0  0  0
    8.0932    1.2772    0.5344 N   0  0  0  0  0  0  0  0  0  0  0  0
    8.2297    2.4417    1.2114 C   0  0  0  0  0  0  0  0  0  0  0  0
    6.0582    0.8179    2.8796 C   0  0  0  0  0  0  0  0  0  0  0  0
    4.8907    0.0912    3.1296 C   0  0  0  0  0  0  0  0  0  0  0  0
    3.6309    0.6437    2.8595 C   0  0  0  0  0  0  0  0  0  0  0  0
    2.4484   -0.0738    3.1043 C   0  0  0  0  0  0  0  0  0  0  0  0
    1.1859    0.4799    2.8324 C   0  0  0  0  0  0  0  0  0  0  0  0
    0.0023   -0.2366    3.0785 C   0  0  0  0  0  0  0  0  0  0  0  0
   -1.2606    0.3167    2.8076 C   0  0  0  0  0  0  0  0  0  0  0  0
   -2.4440   -0.3998    3.0562 C   0  0  0  0  0  0  0  0  0  0  0  0
   -3.7075    0.1535    2.7875 C   0  0  0  0  0  0  0  0  0  0  0  0
   -4.8930   -0.5617    3.0399 C   0  0  0  0  0  0  0  0  0  0  0  0
   -8.3300   -1.0951    2.0729 C   0  0  0  0  0  0  0  0  0  0  0  0
   -8.1336   -0.7364    0.7823 N   0  0  0  0  0  0  0  0  0  0  0  0
   -9.0316   -1.0608   -0.1607 C   0  0  0  0  0  0  0  0  0  0  0  0
   -8.8059   -0.6852   -1.4751 C   0  0  0  0  0  0  0  0  0  0  0  0
   -9.7163   -0.9990   -2.5015 C   0  0  0  0  0  0  0  0  0  0  0  0
   -9.4932   -0.6230   -3.8307 C   0  0  0  0  0  0  0  0  0  0  0  0
  -10.4247   -0.9557   -4.8199 C   0  0  0  0  0  0  0  0  0  0  0  0
  -10.2376   -0.5968   -6.1669 C   0  0  0  0  0  0  0  0  0  0  0  0
  -11.0400   -0.6666   -8.1661 H   0  0  0  0  0  0  0  0  0  0  0  0
  -13.0692   -1.9274   -7.4812 H   0  0  0  0  0  0  0  0  0  0  0  0
  -13.3920   -2.5558   -5.1103 H   0  0  0  0  0  0  0  0  0  0  0  0
  -12.0237   -2.6374   -0.6676 H   0  0  0  0  0  0  0  0  0  0  0  0
  -11.3157   -2.7019    1.7212 H   0  0  0  0  0  0  0  0  0  0  0  0
  -10.5914   -2.7545    4.0618 H   0  0  0  0  0  0  0  0  0  0  0  0
   -8.9409   -2.1661    5.7956 H   0  0  0  0  0  0  0  0  0  0  0  0
   -6.9149   -0.9008    5.1900 H   0  0  0  0  0  0  0  0  0  0  0  0
   -7.1795    1.7363    2.0171 H   0  0  0  0  0  0  0  0  0  0  0  0
   -5.1361    3.0063    1.5649 H   0  0  0  0  0  0  0  0  0  0  0  0
   -2.6695    3.1771    1.5934 H   0  0  0  0  0  0  0  0  0  0  0  0
   -0.2206    3.3400    1.6170 H   0  0  0  0  0  0  0  0  0  0  0  0
    2.2256    3.5047    1.6441 H   0  0  0  0  0  0  0  0  0  0  0  0
    4.6749    3.6664    1.6621 H   0  0  0  0  0  0  0  0  0  0  0  0
    6.6461    4.4579    3.4890 H   0  0  0  0  0  0  0  0  0  0  0  0
    8.6643    5.8279    3.1407 H   0  0  0  0  0  0  0  0  0  0  0  0
   10.4178    5.0672    1.5836 H   0  0  0  0  0  0  0  0  0  0  0  0
   11.2650    3.4027   -0.0063 H   0  0  0  0  0  0  0  0  0  0  0  0
   12.0965    1.6944   -1.6223 H   0  0  0  0  0  0  0  0  0  0  0  0
   13.6937   -1.4570   -4.6510 H   0  0  0  0  0  0  0  0  0  0  0  0
   13.4794   -3.5757   -5.9104 H   0  0  0  0  0  0  0  0  0  0  0  0
   11.4602   -4.9945   -5.6185 H   0  0  0  0  0  0  0  0  0  0  0  0
    9.6729   -4.2818   -4.0695 H   0  0  0  0  0  0  0  0  0  0  0  0
    8.7929   -2.6081   -2.4395 H   0  0  0  0  0  0  0  0  0  0  0  0
    7.9717   -0.8976   -0.8212 H   0  0  0  0  0  0  0  0  0  0  0  0
    7.0219    0.3593    3.0934 H   0  0  0  0  0  0  0  0  0  0  0  0
    4.9778   -0.9144    3.5344 H   0  0  0  0  0  0  0  0  0  0  0  0
    2.5132   -1.0805    3.5129 H   0  0  0  0  0  0  0  0  0  0  0  0
    0.0655   -1.2432    3.4881 H   0  0  0  0  0  0  0  0  0  0  0  0
   -2.3808   -1.4057    3.4676 H   0  0  0  0  0  0  0  0  0  0  0  0
   -4.8309   -1.5717    3.4419 H   0  0  0  0  0  0  0  0  0  0  0  0
   -7.8947   -0.1350   -1.7008 H   0  0  0  0  0  0  0  0  0  0  0  0
   -8.5938   -0.0717   -4.0951 H   0  0  0  0  0  0  0  0  0  0  0  0
   -9.3518   -0.0454   -6.4736 H   0  0  0  0  0  0  0  0  0  0  0  0
  1  2  4  0
  2  3  4  0
  3  4  4  0
  4  5  4  0
  5  6  4  0
  6  7  4  0
  7  8  4  0
  8  9  4  0
  9 10  4  0
 10 11  4  0
 11 12  4  0
 12 13  4  0
 13 14  4  0
 14 15  1  0
 15 16  4  0
 16 17  4  0
 17 18  4  0
 18 19  4  0
 19 20  4  0
 20 21  4  0
 21 22  4  0
 22 23  4  0
 23 24  4  0
 24 25  4  0
 25 26  4  0
 26 27  1  0
 27 28  4  0
 28 29  4  0
 29 30  4  0
 30 31  4  0
 31 32  4  0
 32 33  4  0
 33 34  4  0
 34 35  4  0
 35 36  4  0
 36 37  4  0
 37 38  4  0
 38 39  4  0
 39 40  4  0
 40 41  4  0
 41 42  4  0
 42 43  4  0
 43 44  4  0
 44 45  4  0
 45 46  4  0
 46 47  4  0
 47 48  4  0
 26 49  4  0
 49 50  4  0
 50 51  4  0
 51 52  4  0
 52 53  4  0
 53 54  4  0
 54 55  4  0
 55 56  4  0
 56 57  4  0
 57 58  4  0
 14 59  4  0
 59 60  4  0
 60 61  4  0
 61 62  4  0
 62 63  4  0
 63 64  4  0
 64 65  4  0
 65 66  4  0
 66  1  4  0
 65  4  4  0
 63  6  4  0
 61  8  4  0
 59 10  4  0
 58 15  4  0
 57 18  4  0
 55 20  4  0
 53 22  4  0
 51 24  4  0
 48 27  4  0
 48 31  4  0
 46 33  4  0
 44 35  4  0
 42 37  4  0
  1 67  1  0
  2 68  1  0
  3 69  1  0
  7 70  1  0
  9 71  1  0
 11 72  1  0
 12 73  1  0
 13 74  1  0
 16 75  1  0
 17 76  1  0
 19 77  1  0
 21 78  1  0
 23 79  1  0
 25 80  1  0
 28 81  1  0
 29 82  1  0
 30 83  1  0
 32 84  1  0
 34 85  1  0
 38 86  1  0
 39 87  1  0
 40 88  1  0
 41 89  1  0
 43 90  1  0
 45 91  1  0
 49 92  1  0
 50 93  1  0
 52 94  1  0
 54 95  1  0
 56 96  1  0
 58 97  1  0
 62 98  1  0
 64 99  1  0
 66100  1  0
M  END
