
     RDKit          3D

102116  0  0  0  0  0  0  0  0999 V2000
   -9.3240   -0.8796   -6.1160 C   0  0  0  0  0  0  0  0  0  0  0  0
   -7.9490   -1.0722   -6.0481 C   0  0  0  0  0  0  0  0  0  0  0  0
   -7.3281   -1.2147   -4.8039 C   0  0  0  0  0  0  0  0  0  0  0  0
   -8.0499   -1.1693   -3.6187 C   0  0  0  0  0  0  0  0  0  0  0  0
   -7.4071   -1.3111   -2.4491 N   0  0  0  0  0  0  0  0  0  0  0  0
   -8.0849   -1.2686   -1.2788 C   0  0  0  0  0  0  0  0  0  0  0  0
   -9.4773   -1.0754   -1.2660 C   0  0  0  0  0  0  0  0  0  0  0  0
  -10.1458   -0.9292   -2.4883 C   0  0  0  0  0  0  0  0  0  0  0  0
   -9.4373   -0.9738   -3.6919 C   0  0  0  0  0  0  0  0  0  0  0  0
  -10.0701   -0.8300   -4.9403 C   0  0  0  0  0  0  0  0  0  0  0  0
  -10.1823   -1.0294   -0.0556 C   0  0  0  0  0  0  0  0  0  0  0  0
   -9.5283   -1.1702    1.1721 C   0  0  0  0  0  0  0  0  0  0  0  0
  -10.2601   -1.1168    2.3718 C   0  0  0  0  0  0  0  0  0  0  0  0
   -9.6363   -1.2514    3.6206 C   0  0  0  0  0  0  0  0  0  0  0  0
  -10.3668   -1.1974    4.8197 C   0  0  0  0  0  0  0  0  0  0  0  0
   -9.7258   -1.3326    6.0518 C   0  0  0  0  0  0  0  0  0  0  0  0
   -8.3485   -1.5233    6.1003 C   0  0  0  0  0  0  0  0  0  0  0  0
   -7.6114   -1.5790    4.9167 C   0  0  0  0  0  0  0  0  0  0  0  0
   -8.2436   -1.4446    3.6694 C   0  0  0  0  0  0  0  0  0  0  0  0
   -7.5176   -1.4981    2.4669 C   0  0  0  0  0  0  0  0  0  0  0  0
   -8.1321   -1.3648    1.1965 C   0  0  0  0  0  0  0  0  0  0  0  0
   -7.4167   -1.4156   -0.0437 C   0  0  0  0  0  0  0  0  0  0  0  0
   -5.9519   -1.6257   -0.0531 C   0  0  0  0  0  0  0  0  0  0  0  0
   -5.4152   -2.9194   -0.0686 C   0  0  0  0  0  0  0  0  0  0  0  0
   -4.0324   -3.1164   -0.0780 C   0  0  0  0  0  0  0  0  0  0  0  0
   -3.1524   -2.0237   -0.0751 C   0  0  0  0  0  0  0  0  0  0  0  0
   -1.7599   -2.2054   -0.0906 C   0  0  0  0  0  0  0  0  0  0  0  0
   -0.8782   -1.1112   -0.0939 C   0  0  0  0  0  0  0  0  0  0  0  0
    0.5150   -1.2925   -0.1129 C   0  0  0  0  0  0  0  0  0  0  0  0
    1.3978   -0.1991   -0.1161 C   0  0  0  0  0  0  0  0  0  0  0  0
    2.7913   -0.3807   -0.1345 C   0  0  0  0  0  0  0  0  0  0  0  0
    3.6735    0.7127   -0.1389 C   0  0  0  0  0  0  0  0  0  0  0  0
    5.0676    0.5309   -0.1587 C   0  0  0  0  0  0  0  0  0  0  0  0
    5.9485    1.6249   -0.1614 C   0  0  0  0  0  0  0  0  0  0  0  0
    7.4138    1.4166   -0.1702 C   0  0  0  0  0  0  0  0  0  0  0  0
    8.1256    1.2455    1.0624 C   0  0  0  0  0  0  0  0  0  0  0  0
    7.5095    1.2640    2.3394 C   0  0  0  0  0  0  0  0  0  0  0  0
    8.2322    1.0925    3.5334 C   0  0  0  0  0  0  0  0  0  0  0  0
    7.5984    1.1132    4.7872 C   0  0  0  0  0  0  0  0  0  0  0  0
    8.3321    0.9402    5.9616 C   0  0  0  0  0  0  0  0  0  0  0  0
    9.7082    0.7454    5.8978 C   0  0  0  0  0  0  0  0  0  0  0  0
   10.3510    0.7231    4.6592 C   0  0  0  0  0  0  0  0  0  0  0  0
    9.6236    0.8953    3.4691 C   0  0  0  0  0  0  0  0  0  0  0  0
   10.2492    0.8761    2.2141 C   0  0  0  0  0  0  0  0  0  0  0  0
    9.5208    1.0481    1.0233 C   0  0  0  0  0  0  0  0  0  0  0  0
   10.1780    1.0255   -0.2103 C   0  0  0  0  0  0  0  0  0  0  0  0
    9.4783    1.1957   -1.4126 C   0  0  0  0  0  0  0  0  0  0  0  0
   10.1533    1.1729   -2.6397 C   0  0  0  0  0  0  0  0  0  0  0  0
    9.4524    1.3429   -3.8363 C   0  0  0  0  0  0  0  0  0  0  0  0
   10.0935    1.3276   -5.0888 C   0  0  0  0  0  0  0  0  0  0  0  0
    9.3556    1.5003   -6.2579 C   0  0  0  0  0  0  0  0  0  0  0  0
    7.9805    1.6876   -6.1793 C   0  0  0  0  0  0  0  0  0  0  0  0
    7.3516    1.7020   -4.9308 C   0  0  0  0  0  0  0  0  0  0  0  0
    8.0649    1.5328   -3.7516 C   0  0  0  0  0  0  0  0  0  0  0  0
    7.4153    1.5554   -2.5765 N   0  0  0  0  0  0  0  0  0  0  0  0
    8.0864    1.3930   -1.4121 C   0  0  0  0  0  0  0  0  0  0  0  0
    5.4107    2.9179   -0.1516 C   0  0  0  0  0  0  0  0  0  0  0  0
    4.0278    3.1141   -0.1334 C   0  0  0  0  0  0  0  0  0  0  0  0
    3.1481    2.0211   -0.1250 C   0  0  0  0  0  0  0  0  0  0  0  0
    1.7554    2.2024   -0.1067 C   0  0  0  0  0  0  0  0  0  0  0  0
    0.8740    1.1081   -0.1021 C   0  0  0  0  0  0  0  0  0  0  0  0
   -0.5191    1.2895   -0.0856 C   0  0  0  0  0  0  0  0  0  0  0  0
   -1.4017    0.1961   -0.0805 C   0  0  0  0  0  0  0  0  0  0  0  0
   -2.7949    0.3781   -0.0647 C   0  0  0  0  0  0  0  0  0  0  0  0
   -3.6771   -0.7151   -0.0620 C   0  0  0  0  0  0  0  0  0  0  0  0
   -5.0707   -0.5323   -0.0511 C   0  0  0  0  0  0  0  0  0  0  0  0
   -9.8134   -0.7685   -7.0800 H   0  0  0  0  0  0  0  0  0  0  0  0
   -7.3549   -1.1128   -6.9574 H   0  0  0  0  0  0  0  0  0  0  0  0
   -6.2518   -1.3654   -4.7548 H   0  0  0  0  0  0  0  0  0  0  0  0
  -11.2228   -0.7791   -2.5044 H   0  0  0  0  0  0  0  0  0  0  0  0
  -11.1453   -0.6787   -5.0008 H   0  0  0  0  0  0  0  0  0  0  0  0
  -11.2610   -0.8793   -0.0729 H   0  0  0  0  0  0  0  0  0  0  0  0
  -11.3380   -0.9663    2.3352 H   0  0  0  0  0  0  0  0  0  0  0  0
  -11.4441   -1.0487    4.8021 H   0  0  0  0  0  0  0  0  0  0  0  0
  -10.3022   -1.2886    6.9720 H   0  0  0  0  0  0  0  0  0  0  0  0
   -7.8457   -1.6287    7.0579 H   0  0  0  0  0  0  0  0  0  0  0  0
   -6.5352   -1.7284    4.9740 H   0  0  0  0  0  0  0  0  0  0  0  0
   -6.4399   -1.6469    2.5270 H   0  0  0  0  0  0  0  0  0  0  0  0
   -6.0767   -3.7829   -0.0832 H   0  0  0  0  0  0  0  0  0  0  0  0
   -3.6491   -4.1339   -0.0963 H   0  0  0  0  0  0  0  0  0  0  0  0
   -1.3560   -3.2160   -0.1043 H   0  0  0  0  0  0  0  0  0  0  0  0
    0.9193   -2.3030   -0.1277 H   0  0  0  0  0  0  0  0  0  0  0  0
    3.1979   -1.3904   -0.1475 H   0  0  0  0  0  0  0  0  0  0  0  0
    5.4807   -0.4763   -0.1778 H   0  0  0  0  0  0  0  0  0  0  0  0
    6.4332    1.4173    2.4118 H   0  0  0  0  0  0  0  0  0  0  0  0
    6.5231    1.2643    4.8561 H   0  0  0  0  0  0  0  0  0  0  0  0
    7.8276    0.9576    6.9242 H   0  0  0  0  0  0  0  0  0  0  0  0
   10.2822    0.6103    6.8108 H   0  0  0  0  0  0  0  0  0  0  0  0
   11.4273    0.5694    4.6292 H   0  0  0  0  0  0  0  0  0  0  0  0
   11.3265    0.7242    2.1654 H   0  0  0  0  0  0  0  0  0  0  0  0
   11.2562    0.8737   -0.2387 H   0  0  0  0  0  0  0  0  0  0  0  0
   11.2302    1.0225   -2.6651 H   0  0  0  0  0  0  0  0  0  0  0  0
   11.1689    1.1817   -5.1575 H   0  0  0  0  0  0  0  0  0  0  0  0
    9.8513    1.4887   -7.2251 H   0  0  0  0  0  0  0  0  0  0  0  0
    7.3924    1.8233   -7.0832 H   0  0  0  0  0  0  0  0  0  0  0  0
    6.2753    1.8490   -4.8731 H   0  0  0  0  0  0  0  0  0  0  0  0
    6.0714    3.7822   -0.1667 H   0  0  0  0  0  0  0  0  0  0  0  0
    3.6443    4.1316   -0.1323 H   0  0  0  0  0  0  0  0  0  0  0  0
    1.3512    3.2130   -0.0984 H   0  0  0  0  0  0  0  0  0  0  0  0
   -0.9246    2.2997   -0.0790 H   0  0  0  0  0  0  0  0  0  0  0  0
   -3.2022    1.3876   -0.0584 H   0  0  0  0  0  0  0  0  0  0  0  0
   -5.4836    0.4751   -0.0518 H   0  0  0  0  0  0  0  0  0  0  0  0
  1  2  4  0
  2  3  4  0
  3  4  4  0
  4  5  4  0
  5  6  4  0
  6  7  4  0
  7  8  4  0
  8  9  4  0
  9 10  4  0
  7 11  4  0
 11 12  4  0
 12 13  4  0
 13 14  4  0
 14 15  4  0
 15 16  4  0
 16 17  4  0
 17 18  4  0
 18 19  4  0
 19 20  4  0
 20 21  4  0
 21 22  4  0
 22 23  1  0
 23 24  4  0
 24 25  4  0
 25 26  4  0
 26 27  4  0
 27 28  4  0
 28 29  4  0
 29 30  4  0
 30 31  4  0
 31 32  4  0
 32 33  4  0
 33 34  4  0
 34 35  1  0
 35 36  4  0
 36 37  4  0
 37 38  4  0
 38 39  4  0
 39 40  4  0
 40 41  4  0
 41 42  4  0
 42 43  4  0
 43 44  4  0
 44 45  4  0
 45 46  4  0
 46 47  4  0
 47 48  4  0
 48 49  4  0
 49 50  4  0
 50 51  4  0
 51 52  4  0
 52 53  4  0
 53 54  4  0
 54 55  4  0
 55 56  4  0
 34 57  4  0
 57 58  4  0
 58 59  4  0
 59 60  4  0
 60 61  4  0
 61 62  4  0
 62 63  4  0
 63 64  4  0
 64 65  4  0
 65 66  4  0
 10  1  4  0
 21 12  4  0
 66 23  4  0
  9  4  4  0
 19 14  4  0
 65 26  4  0
 22  6  4  0
 63 28  4  0
 61 30  4  0
 59 32  4  0
 56 35  4  0
 45 36  4  0
 56 47  4  0
 43 38  4  0
 54 49  4  0
  1 67  1  0
  2 68  1  0
  3 69  1  0
  8 70  1  0
 10 71  1  0
 11 72  1  0
 13 73  1  0
 15 74  1  0
 16 75  1  0
 17 76  1  0
 18 77  1  0
 20 78  1  0
 24 79  1  0
 25 80  1  0
 27 81  1  0
 29 82  1  0
 31 83  1  0
 33 84  1  0
 37 85  1  0
 39 86  1  0
 40 87  1  0
 41 88  1  0
 42 89  1  0
 44 90  1  0
 46 91  1  0
 48 92  1  0
 50 93  1  0
 51 94  1  0
 52 95  1  0
 53 96  1  0
 57 97  1  0
 58 98  1  0
 60 99  1  0
 62100  1  0
 64101  1  0
 66102  1  0
M  END
