
     RDKit          3D

102116  0  0  0  0  0  0  0  0999 V2000
  -17.6484   -3.6064    2.9858 C   0  0  0  0  0  0  0  0  0  0  0  0
  -16.2668   -3.6530    2.7938 C   0  0  0  0  0  0  0  0  0  0  0  0
  -15.6198   -2.6968    1.9937 C   0  0  0  0  0  0  0  0  0  0  0  0
  -14.2304   -2.7301    1.7905 C   0  0  0  0  0  0  0  0  0  0  0  0
  -13.5856   -1.7725    0.9895 C   0  0  0  0  0  0  0  0  0  0  0  0
  -12.1989   -1.7999    0.7823 C   0  0  0  0  0  0  0  0  0  0  0  0
  -11.5694   -0.8337   -0.0227 C   0  0  0  0  0  0  0  0  0  0  0  0
  -10.1873   -0.8420   -0.2430 C   0  0  0  0  0  0  0  0  0  0  0  0
   -9.5971    0.1366   -1.0504 C   0  0  0  0  0  0  0  0  0  0  0  0
   -8.2099    0.1630   -1.2960 C   0  0  0  0  0  0  0  0  0  0  0  0
   -7.6321    1.1489   -2.1100 C   0  0  0  0  0  0  0  0  0  0  0  0
   -6.1827    1.1746   -2.3617 C   0  0  0  0  0  0  0  0  0  0  0  0
   -5.6755    1.1700   -3.6681 C   0  0  0  0  0  0  0  0  0  0  0  0
   -4.2975    1.1910   -3.9056 C   0  0  0  0  0  0  0  0  0  0  0  0
   -3.3861    1.2193   -2.8403 C   0  0  0  0  0  0  0  0  0  0  0  0
   -1.9987    1.2407   -3.0609 C   0  0  0  0  0  0  0  0  0  0  0  0
   -1.0878    1.2707   -1.9915 C   0  0  0  0  0  0  0  0  0  0  0  0
    0.2996    1.2922   -2.2113 C   0  0  0  0  0  0  0  0  0  0  0  0
    1.2107    1.3227   -1.1426 C   0  0  0  0  0  0  0  0  0  0  0  0
    2.5977    1.3444   -1.3648 C   0  0  0  0  0  0  0  0  0  0  0  0
    3.5105    1.3755   -0.2979 C   0  0  0  0  0  0  0  0  0  0  0  0
    4.8991    1.3977   -0.5219 C   0  0  0  0  0  0  0  0  0  0  0  0
    5.8192    1.4266    0.5398 C   0  0  0  0  0  0  0  0  0  0  0  0
    7.2676    1.4488    0.2838 C   0  0  0  0  0  0  0  0  0  0  0  0
    7.8438    2.4293   -0.5324 C   0  0  0  0  0  0  0  0  0  0  0  0
    9.2231    2.4415   -0.7757 C   0  0  0  0  0  0  0  0  0  0  0  0
   10.0701    1.4920   -0.2256 C   0  0  0  0  0  0  0  0  0  0  0  0
   11.3864    1.5478   -0.4929 N   0  0  0  0  0  0  0  0  0  0  0  0
   12.2057    0.6251    0.0414 C   0  0  0  0  0  0  0  0  0  0  0  0
   13.5649    0.6830   -0.2337 C   0  0  0  0  0  0  0  0  0  0  0  0
   14.4793   -0.2481    0.2905 C   0  0  0  0  0  0  0  0  0  0  0  0
   15.8520   -0.1722    0.0004 C   0  0  0  0  0  0  0  0  0  0  0  0
   16.7637   -1.1031    0.5252 C   0  0  0  0  0  0  0  0  0  0  0  0
   18.1361   -1.0278    0.2357 C   0  0  0  0  0  0  0  0  0  0  0  0
   19.0297   -1.9603    0.7648 C   0  0  0  0  0  0  0  0  0  0  0  0
   18.5632   -2.9793    1.5893 C   0  0  0  0  0  0  0  0  0  0  0  0
   17.2023   -3.0675    1.8861 C   0  0  0  0  0  0  0  0  0  0  0  0
   16.2904   -2.1367    1.3614 C   0  0  0  0  0  0  0  0  0  0  0  0
   14.9178   -2.2116    1.6506 C   0  0  0  0  0  0  0  0  0  0  0  0
   14.0079   -1.2789    1.1246 C   0  0  0  0  0  0  0  0  0  0  0  0
   12.6365   -1.3476    1.4094 C   0  0  0  0  0  0  0  0  0  0  0  0
   11.7394   -0.4055    0.8748 C   0  0  0  0  0  0  0  0  0  0  0  0
   10.3673   -0.4546    1.1464 C   0  0  0  0  0  0  0  0  0  0  0  0
    9.5061    0.5014    0.5966 C   0  0  0  0  0  0  0  0  0  0  0  0
    8.1193    0.4860    0.8454 C   0  0  0  0  0  0  0  0  0  0  0  0
    5.3149    1.4329    1.8473 C   0  0  0  0  0  0  0  0  0  0  0  0
    3.9373    1.4125    2.0876 C   0  0  0  0  0  0  0  0  0  0  0  0
    3.0235    1.3834    1.0242 C   0  0  0  0  0  0  0  0  0  0  0  0
    1.6361    1.3621    1.2468 C   0  0  0  0  0  0  0  0  0  0  0  0
    0.7234    1.3319    0.1786 C   0  0  0  0  0  0  0  0  0  0  0  0
   -0.6645    1.3105    0.3984 C   0  0  0  0  0  0  0  0  0  0  0  0
   -1.5760    1.2799   -0.6705 C   0  0  0  0  0  0  0  0  0  0  0  0
   -2.9636    1.2582   -0.4504 C   0  0  0  0  0  0  0  0  0  0  0  0
   -3.8752    1.2269   -1.5189 C   0  0  0  0  0  0  0  0  0  0  0  0
   -5.2646    1.2042   -1.2980 C   0  0  0  0  0  0  0  0  0  0  0  0
   -8.4831    2.1073   -2.6723 C   0  0  0  0  0  0  0  0  0  0  0  0
   -9.8614    2.0782   -2.4240 C   0  0  0  0  0  0  0  0  0  0  0  0
  -10.4387    1.1074   -1.6200 C   0  0  0  0  0  0  0  0  0  0  0  0
  -11.7672    1.1246   -1.4140 N   0  0  0  0  0  0  0  0  0  0  0  0
  -12.3245    0.1803   -0.6358 C   0  0  0  0  0  0  0  0  0  0  0  0
  -13.6960    0.1977   -0.4232 C   0  0  0  0  0  0  0  0  0  0  0  0
  -14.3457   -0.7584    0.3776 C   0  0  0  0  0  0  0  0  0  0  0  0
  -15.7357   -0.7241    0.5802 C   0  0  0  0  0  0  0  0  0  0  0  0
  -16.3828   -1.6802    1.3803 C   0  0  0  0  0  0  0  0  0  0  0  0
  -17.7724   -1.6469    1.5832 C   0  0  0  0  0  0  0  0  0  0  0  0
  -18.4006   -2.6042    2.3811 C   0  0  0  0  0  0  0  0  0  0  0  0
  -18.1357   -4.3528    3.6075 H   0  0  0  0  0  0  0  0  0  0  0  0
  -15.6967   -4.4444    3.2752 H   0  0  0  0  0  0  0  0  0  0  0  0
  -13.6425   -3.5145    2.2638 H   0  0  0  0  0  0  0  0  0  0  0  0
  -11.6014   -2.5797    1.2505 H   0  0  0  0  0  0  0  0  0  0  0  0
   -9.5699   -1.6114    0.2144 H   0  0  0  0  0  0  0  0  0  0  0  0
   -7.5740   -0.6033   -0.8553 H   0  0  0  0  0  0  0  0  0  0  0  0
   -6.3540    1.1375   -4.5185 H   0  0  0  0  0  0  0  0  0  0  0  0
   -3.9426    1.1828   -4.9339 H   0  0  0  0  0  0  0  0  0  0  0  0
   -1.6206    1.2342   -4.0818 H   0  0  0  0  0  0  0  0  0  0  0  0
    0.6773    1.2849   -3.2323 H   0  0  0  0  0  0  0  0  0  0  0  0
    2.9734    1.3370   -2.3866 H   0  0  0  0  0  0  0  0  0  0  0  0
    5.2728    1.3808   -1.5449 H   0  0  0  0  0  0  0  0  0  0  0  0
    7.2259    3.2046   -0.9814 H   0  0  0  0  0  0  0  0  0  0  0  0
    9.6466    3.2159   -1.4112 H   0  0  0  0  0  0  0  0  0  0  0  0
   13.9173    1.4846   -0.8799 H   0  0  0  0  0  0  0  0  0  0  0  0
   16.2171    0.6252   -0.6448 H   0  0  0  0  0  0  0  0  0  0  0  0
   18.5202   -0.2385   -0.4068 H   0  0  0  0  0  0  0  0  0  0  0  0
   20.0891   -1.8895    0.5321 H   0  0  0  0  0  0  0  0  0  0  0  0
   19.2576   -3.7064    2.0022 H   0  0  0  0  0  0  0  0  0  0  0  0
   16.8575   -3.8715    2.5325 H   0  0  0  0  0  0  0  0  0  0  0  0
   14.5532   -3.0090    2.2956 H   0  0  0  0  0  0  0  0  0  0  0  0
   12.2608   -2.1406    2.0531 H   0  0  0  0  0  0  0  0  0  0  0  0
    9.9689   -1.2381    1.7866 H   0  0  0  0  0  0  0  0  0  0  0  0
    7.6973   -0.2958    1.4749 H   0  0  0  0  0  0  0  0  0  0  0  0
    5.9948    1.4673    2.6964 H   0  0  0  0  0  0  0  0  0  0  0  0
    3.5845    1.4229    3.1166 H   0  0  0  0  0  0  0  0  0  0  0  0
    1.2604    1.3687    2.2686 H   0  0  0  0  0  0  0  0  0  0  0  0
   -1.0417    1.3176    1.4196 H   0  0  0  0  0  0  0  0  0  0  0  0
   -3.3413    1.2661    0.5706 H   0  0  0  0  0  0  0  0  0  0  0  0
   -5.6404    1.2223   -0.2759 H   0  0  0  0  0  0  0  0  0  0  0  0
   -8.0811    2.8987   -3.3019 H   0  0  0  0  0  0  0  0  0  0  0  0
  -10.5002    2.8374   -2.8695 H   0  0  0  0  0  0  0  0  0  0  0  0
  -14.2732    0.9865   -0.9018 H   0  0  0  0  0  0  0  0  0  0  0  0
  -16.3241    0.0603    0.1067 H   0  0  0  0  0  0  0  0  0  0  0  0
  -18.3777   -0.8714    1.1189 H   0  0  0  0  0  0  0  0  0  0  0  0
  -19.4767   -2.5662    2.5293 H   0  0  0  0  0  0  0  0  0  0  0  0
  1  2  4  0
  2  3  4  0
  3  4  4  0
  4  5  4  0
  5  6  4  0
  6  7  4  0
  7  8  4  0
  8  9  4  0
  9 10  4  0
 10 11  4  0
 11 12  1  0
 12 13  4  0
 13 14  4  0
 14 15  4  0
 15 16  4  0
 16 17  4  0
 17 18  4  0
 18 19  4  0
 19 20  4  0
 20 21  4  0
 21 22  4  0
 22 23  4  0
 23 24  1  0
 24 25  4  0
 25 26  4  0
 26 27  4  0
 27 28  4  0
 28 29  4  0
 29 30  4  0
 30 31  4  0
 31 32  4  0
 32 33  4  0
 33 34  4  0
 34 35  4  0
 35 36  4  0
 36 37  4  0
 37 38  4  0
 38 39  4  0
 39 40  4  0
 40 41  4  0
 41 42  4  0
 42 43  4  0
 43 44  4  0
 44 45  4  0
 23 46  4  0
 46 47  4  0
 47 48  4  0
 48 49  4  0
 49 50  4  0
 50 51  4  0
 51 52  4  0
 52 53  4  0
 53 54  4  0
 54 55  4  0
 11 56  4  0
 56 57  4  0
 57 58  4  0
 58 59  4  0
 59 60  4  0
 60 61  4  0
 61 62  4  0
 62 63  4  0
 63 64  4  0
 64 65  4  0
 65 66  4  0
 66  1  4  0
 64  3  4  0
 62  5  4  0
 60  7  4  0
 58  9  4  0
 55 12  4  0
 54 15  4  0
 52 17  4  0
 50 19  4  0
 48 21  4  0
 45 24  4  0
 44 27  4  0
 42 29  4  0
 40 31  4  0
 38 33  4  0
  1 67  1  0
  2 68  1  0
  4 69  1  0
  6 70  1  0
  8 71  1  0
 10 72  1  0
 13 73  1  0
 14 74  1  0
 16 75  1  0
 18 76  1  0
 20 77  1  0
 22 78  1  0
 25 79  1  0
 26 80  1  0
 30 81  1  0
 32 82  1  0
 34 83  1  0
 35 84  1  0
 36 85  1  0
 37 86  1  0
 39 87  1  0
 41 88  1  0
 43 89  1  0
 45 90  1  0
 46 91  1  0
 47 92  1  0
 49 93  1  0
 51 94  1  0
 53 95  1  0
 55 96  1  0
 56 97  1  0
 57 98  1  0
 61 99  1  0
 63100  1  0
 65101  1  0
 66102  1  0
M  END
