
     RDKit          3D

102116  0  0  0  0  0  0  0  0999 V2000
    8.5347    6.8827    1.5969 C   0  0  0  0  0  0  0  0  0  0  0  0
    9.8802    6.6850    1.8839 C   0  0  0  0  0  0  0  0  0  0  0  0
   10.4619    5.4326    1.6629 C   0  0  0  0  0  0  0  0  0  0  0  0
    9.7308    4.3643    1.1591 C   0  0  0  0  0  0  0  0  0  0  0  0
   10.3381    3.1802    0.9643 N   0  0  0  0  0  0  0  0  0  0  0  0
    9.6263    2.1488    0.4756 C   0  0  0  0  0  0  0  0  0  0  0  0
   10.2479    0.9265    0.2723 C   0  0  0  0  0  0  0  0  0  0  0  0
    9.5686   -0.1972   -0.2358 C   0  0  0  0  0  0  0  0  0  0  0  0
   10.2518   -1.4062   -0.4185 C   0  0  0  0  0  0  0  0  0  0  0  0
    9.6151   -2.5484   -0.9195 C   0  0  0  0  0  0  0  0  0  0  0  0
   10.3404   -3.7415   -1.0853 C   0  0  0  0  0  0  0  0  0  0  0  0
    9.7310   -4.8923   -1.5808 C   0  0  0  0  0  0  0  0  0  0  0  0
    8.3860   -4.8648   -1.9171 C   0  0  0  0  0  0  0  0  0  0  0  0
    7.6549   -3.6856   -1.7568 C   0  0  0  0  0  0  0  0  0  0  0  0
    8.2442   -2.4969   -1.2561 C   0  0  0  0  0  0  0  0  0  0  0  0
    7.5322   -1.2680   -1.0764 C   0  0  0  0  0  0  0  0  0  0  0  0
    6.0962   -1.1938   -1.4209 C   0  0  0  0  0  0  0  0  0  0  0  0
    5.6876   -0.8330   -2.7109 C   0  0  0  0  0  0  0  0  0  0  0  0
    4.3304   -0.7632   -3.0327 C   0  0  0  0  0  0  0  0  0  0  0  0
    3.3502   -1.0511   -2.0709 C   0  0  0  0  0  0  0  0  0  0  0  0
    1.9818   -0.9836   -2.3781 C   0  0  0  0  0  0  0  0  0  0  0  0
    1.0001   -1.2725   -1.4152 C   0  0  0  0  0  0  0  0  0  0  0  0
   -0.3692   -1.2055   -1.7216 C   0  0  0  0  0  0  0  0  0  0  0  0
   -1.3508   -1.4942   -0.7589 C   0  0  0  0  0  0  0  0  0  0  0  0
   -2.7198   -1.4269   -1.0666 C   0  0  0  0  0  0  0  0  0  0  0  0
   -3.7013   -1.7151   -0.1046 C   0  0  0  0  0  0  0  0  0  0  0  0
   -5.0701   -1.6474   -0.4143 C   0  0  0  0  0  0  0  0  0  0  0  0
   -6.0517   -1.9346    0.5479 C   0  0  0  0  0  0  0  0  0  0  0  0
   -7.4883   -1.8568    0.2047 C   0  0  0  0  0  0  0  0  0  0  0  0
   -8.1688   -3.0203   -0.2783 C   0  0  0  0  0  0  0  0  0  0  0  0
   -7.5472   -4.2817   -0.4597 C   0  0  0  0  0  0  0  0  0  0  0  0
   -8.2489   -5.3925   -0.9338 C   0  0  0  0  0  0  0  0  0  0  0  0
   -9.5961   -5.2763   -1.2417 C   0  0  0  0  0  0  0  0  0  0  0  0
  -10.2371   -4.0508   -1.0758 C   0  0  0  0  0  0  0  0  0  0  0  0
   -9.5413   -2.9257   -0.5999 C   0  0  0  0  0  0  0  0  0  0  0  0
  -10.2101   -1.7057   -0.4448 C   0  0  0  0  0  0  0  0  0  0  0  0
   -9.5581   -0.5586    0.0236 C   0  0  0  0  0  0  0  0  0  0  0  0
  -10.2701    0.6479    0.1612 C   0  0  0  0  0  0  0  0  0  0  0  0
   -9.6813    1.8166    0.6171 C   0  0  0  0  0  0  0  0  0  0  0  0
  -10.4233    2.9335    0.7213 N   0  0  0  0  0  0  0  0  0  0  0  0
   -9.8478    4.0653    1.1640 C   0  0  0  0  0  0  0  0  0  0  0  0
  -10.6098    5.2214    1.2733 C   0  0  0  0  0  0  0  0  0  0  0  0
  -10.0617    6.4253    1.7267 C   0  0  0  0  0  0  0  0  0  0  0  0
   -8.7192    6.4837    2.0817 C   0  0  0  0  0  0  0  0  0  0  0  0
   -7.9319    5.3386    1.9819 C   0  0  0  0  0  0  0  0  0  0  0  0
   -8.4892    4.1302    1.5251 C   0  0  0  0  0  0  0  0  0  0  0  0
   -7.7295    2.9608    1.4119 C   0  0  0  0  0  0  0  0  0  0  0  0
   -8.3217    1.7784    0.9522 C   0  0  0  0  0  0  0  0  0  0  0  0
   -7.5947    0.5797    0.8221 C   0  0  0  0  0  0  0  0  0  0  0  0
   -8.1900   -0.6167    0.3551 C   0  0  0  0  0  0  0  0  0  0  0  0
   -5.6430   -2.2956    1.8379 C   0  0  0  0  0  0  0  0  0  0  0  0
   -4.2857   -2.3675    2.1595 C   0  0  0  0  0  0  0  0  0  0  0  0
   -3.3044   -2.0802    1.1984 C   0  0  0  0  0  0  0  0  0  0  0  0
   -1.9355   -2.1488    1.5052 C   0  0  0  0  0  0  0  0  0  0  0  0
   -0.9538   -1.8595    0.5422 C   0  0  0  0  0  0  0  0  0  0  0  0
    0.4156   -1.9271    0.8484 C   0  0  0  0  0  0  0  0  0  0  0  0
    1.3970   -1.6379   -0.1142 C   0  0  0  0  0  0  0  0  0  0  0  0
    2.7657   -1.7060    0.1937 C   0  0  0  0  0  0  0  0  0  0  0  0
    3.7470   -1.4166   -0.7680 C   0  0  0  0  0  0  0  0  0  0  0  0
    5.1155   -1.4842   -0.4588 C   0  0  0  0  0  0  0  0  0  0  0  0
    8.2008   -0.1105   -0.5616 C   0  0  0  0  0  0  0  0  0  0  0  0
    7.5716    1.1401   -0.3519 C   0  0  0  0  0  0  0  0  0  0  0  0
    8.2664    2.2536    0.1573 C   0  0  0  0  0  0  0  0  0  0  0  0
    7.6408    3.4891    0.3632 C   0  0  0  0  0  0  0  0  0  0  0  0
    8.3691    4.5706    0.8706 C   0  0  0  0  0  0  0  0  0  0  0  0
    7.7778    5.8281    1.0910 C   0  0  0  0  0  0  0  0  0  0  0  0
    8.0763    7.8537    1.7658 H   0  0  0  0  0  0  0  0  0  0  0  0
   10.4821    7.4994    2.2788 H   0  0  0  0  0  0  0  0  0  0  0  0
   11.5152    5.2852    1.8896 H   0  0  0  0  0  0  0  0  0  0  0  0
   11.3051    0.8542    0.5225 H   0  0  0  0  0  0  0  0  0  0  0  0
   11.3098   -1.4599   -0.1626 H   0  0  0  0  0  0  0  0  0  0  0  0
   11.3967   -3.7829   -0.8266 H   0  0  0  0  0  0  0  0  0  0  0  0
   10.3069   -5.8057   -1.7025 H   0  0  0  0  0  0  0  0  0  0  0  0
    7.8996   -5.7563   -2.3043 H   0  0  0  0  0  0  0  0  0  0  0  0
    6.6018   -3.7059   -2.0316 H   0  0  0  0  0  0  0  0  0  0  0  0
    6.4296   -0.6053   -3.4739 H   0  0  0  0  0  0  0  0  0  0  0  0
    4.0450   -0.4823   -4.0442 H   0  0  0  0  0  0  0  0  0  0  0  0
    1.6770   -0.7016   -3.3842 H   0  0  0  0  0  0  0  0  0  0  0  0
   -0.6769   -0.9250   -2.7275 H   0  0  0  0  0  0  0  0  0  0  0  0
   -3.0278   -1.1452   -2.0723 H   0  0  0  0  0  0  0  0  0  0  0  0
   -5.3840   -1.3683   -1.4193 H   0  0  0  0  0  0  0  0  0  0  0  0
   -6.4913   -4.4148   -0.2307 H   0  0  0  0  0  0  0  0  0  0  0  0
   -7.7384   -6.3435   -1.0604 H   0  0  0  0  0  0  0  0  0  0  0  0
  -10.1493   -6.1354   -1.6111 H   0  0  0  0  0  0  0  0  0  0  0  0
  -11.2944   -3.9796   -1.3237 H   0  0  0  0  0  0  0  0  0  0  0  0
  -11.2686   -1.6470   -0.6973 H   0  0  0  0  0  0  0  0  0  0  0  0
  -11.3273    0.6868   -0.0963 H   0  0  0  0  0  0  0  0  0  0  0  0
  -11.6611    5.1834    0.9974 H   0  0  0  0  0  0  0  0  0  0  0  0
  -10.6872    7.3112    1.8000 H   0  0  0  0  0  0  0  0  0  0  0  0
   -8.2868    7.4163    2.4350 H   0  0  0  0  0  0  0  0  0  0  0  0
   -6.8822    5.3908    2.2613 H   0  0  0  0  0  0  0  0  0  0  0  0
   -6.6760    2.9703    1.6813 H   0  0  0  0  0  0  0  0  0  0  0  0
   -6.5397    0.5869    1.0923 H   0  0  0  0  0  0  0  0  0  0  0  0
   -6.3852   -2.5249    2.6004 H   0  0  0  0  0  0  0  0  0  0  0  0
   -4.0013   -2.6517    3.1703 H   0  0  0  0  0  0  0  0  0  0  0  0
   -1.6282   -2.4330    2.5102 H   0  0  0  0  0  0  0  0  0  0  0  0
    0.7239   -2.2111    1.8532 H   0  0  0  0  0  0  0  0  0  0  0  0
    3.0736   -1.9892    1.1989 H   0  0  0  0  0  0  0  0  0  0  0  0
    5.4303   -1.7674    0.5447 H   0  0  0  0  0  0  0  0  0  0  0  0
    6.5151    1.2582   -0.5882 H   0  0  0  0  0  0  0  0  0  0  0  0
    6.5858    3.6084    0.1279 H   0  0  0  0  0  0  0  0  0  0  0  0
    6.7255    5.9894    0.8684 H   0  0  0  0  0  0  0  0  0  0  0  0
  1  2  4  0
  2  3  4  0
  3  4  4  0
  4  5  4  0
  5  6  4  0
  6  7  4  0
  7  8  4  0
  8  9  4  0
  9 10  4  0
 10 11  4  0
 11 12  4  0
 12 13  4  0
 13 14  4  0
 14 15  4  0
 15 16  4  0
 16 17  1  0
 17 18  4  0
 18 19  4  0
 19 20  4  0
 20 21  4  0
 21 22  4  0
 22 23  4  0
 23 24  4  0
 24 25  4  0
 25 26  4  0
 26 27  4  0
 27 28  4  0
 28 29  1  0
 29 30  4  0
 30 31  4  0
 31 32  4  0
 32 33  4  0
 33 34  4  0
 34 35  4  0
 35 36  4  0
 36 37  4  0
 37 38  4  0
 38 39  4  0
 39 40  4  0
 40 41  4  0
 41 42  4  0
 42 43  4  0
 43 44  4  0
 44 45  4  0
 45 46  4  0
 46 47  4  0
 47 48  4  0
 48 49  4  0
 49 50  4  0
 28 51  4  0
 51 52  4  0
 52 53  4  0
 53 54  4  0
 54 55  4  0
 55 56  4  0
 56 57  4  0
 57 58  4  0
 58 59  4  0
 59 60  4  0
 16 61  4  0
 61 62  4  0
 62 63  4  0
 63 64  4  0
 64 65  4  0
 65 66  4  0
 66  1  4  0
 65  4  4  0
 63  6  4  0
 61  8  4  0
 15 10  4  0
 60 17  4  0
 59 20  4  0
 57 22  4  0
 55 24  4  0
 53 26  4  0
 50 29  4  0
 35 30  4  0
 50 37  4  0
 48 39  4  0
 46 41  4  0
  1 67  1  0
  2 68  1  0
  3 69  1  0
  7 70  1  0
  9 71  1  0
 11 72  1  0
 12 73  1  0
 13 74  1  0
 14 75  1  0
 18 76  1  0
 19 77  1  0
 21 78  1  0
 23 79  1  0
 25 80  1  0
 27 81  1  0
 31 82  1  0
 32 83  1  0
 33 84  1  0
 34 85  1  0
 36 86  1  0
 38 87  1  0
 42 88  1  0
 43 89  1  0
 44 90  1  0
 45 91  1  0
 47 92  1  0
 49 93  1  0
 51 94  1  0
 52 95  1  0
 54 96  1  0
 56 97  1  0
 58 98  1  0
 60 99  1  0
 62100  1  0
 64101  1  0
 66102  1  0
M  END
