
     RDKit          3D

 92106  0  0  0  0  0  0  0  0999 V2000
   18.9092    2.3355   -1.4982 C   0  0  0  0  0  0  0  0  0  0  0  0
   17.7719    3.0206   -1.1401 C   0  0  0  0  0  0  0  0  0  0  0  0
   16.6167    2.1736   -1.0459 C   0  0  0  0  0  0  0  0  0  0  0  0
   15.2754    2.4789   -0.7114 C   0  0  0  0  0  0  0  0  0  0  0  0
   14.2869    1.4784   -0.6790 C   0  0  0  0  0  0  0  0  0  0  0  0
   12.9559    1.7816   -0.3470 C   0  0  0  0  0  0  0  0  0  0  0  0
   11.9617    0.7897   -0.3122 C   0  0  0  0  0  0  0  0  0  0  0  0
   12.3063   -0.5374   -0.6167 C   0  0  0  0  0  0  0  0  0  0  0  0
   13.6376   -0.8398   -0.9485 C   0  0  0  0  0  0  0  0  0  0  0  0
   14.6325    0.1514   -0.9835 C   0  0  0  0  0  0  0  0  0  0  0  0
   15.9595   -0.1676   -1.3174 C   0  0  0  0  0  0  0  0  0  0  0  0
   16.9347    0.8486   -1.3441 C   0  0  0  0  0  0  0  0  0  0  0  0
   18.6068    0.6732   -1.7252 S   0  0  0  0  0  0  0  0  0  0  0  0
   11.3230   -1.5404   -0.5863 C   0  0  0  0  0  0  0  0  0  0  0  0
    9.9967   -1.2056   -0.2499 C   0  0  0  0  0  0  0  0  0  0  0  0
    8.6499   -2.2722   -0.1555 S   0  0  0  0  0  0  0  0  0  0  0  0
    7.5744   -1.0210    0.2955 C   0  0  0  0  0  0  0  0  0  0  0  0
    6.1525   -1.3042    0.5259 C   0  0  0  0  0  0  0  0  0  0  0  0
    5.7403   -2.3693    1.3346 C   0  0  0  0  0  0  0  0  0  0  0  0
    4.3811   -2.6135    1.5533 C   0  0  0  0  0  0  0  0  0  0  0  0
    3.4013   -1.7965    0.9702 C   0  0  0  0  0  0  0  0  0  0  0  0
    2.0321   -2.0296    1.1802 C   0  0  0  0  0  0  0  0  0  0  0  0
    1.0511   -1.2108    0.5955 C   0  0  0  0  0  0  0  0  0  0  0  0
   -0.3190   -1.4432    0.8048 C   0  0  0  0  0  0  0  0  0  0  0  0
   -1.3003   -0.6248    0.2199 C   0  0  0  0  0  0  0  0  0  0  0  0
   -2.6704   -0.8576    0.4294 C   0  0  0  0  0  0  0  0  0  0  0  0
   -3.6521   -0.0400   -0.1558 C   0  0  0  0  0  0  0  0  0  0  0  0
   -5.0239   -0.2731    0.0540 C   0  0  0  0  0  0  0  0  0  0  0  0
   -6.0028    0.5438   -0.5324 C   0  0  0  0  0  0  0  0  0  0  0  0
   -7.4347    0.3115   -0.3062 C   0  0  0  0  0  0  0  0  0  0  0  0
   -8.4124    1.2289    0.0237 C   0  0  0  0  0  0  0  0  0  0  0  0
   -9.7213    0.6532    0.1431 C   0  0  0  0  0  0  0  0  0  0  0  0
  -10.9645    1.2491    0.4644 C   0  0  0  0  0  0  0  0  0  0  0  0
  -12.1443    0.4851    0.5231 C   0  0  0  0  0  0  0  0  0  0  0  0
  -12.0912   -0.8935    0.2598 C   0  0  0  0  0  0  0  0  0  0  0  0
  -13.2750   -1.6475    0.3199 C   0  0  0  0  0  0  0  0  0  0  0  0
  -14.5100   -1.0576    0.6363 C   0  0  0  0  0  0  0  0  0  0  0  0
  -15.6846   -1.8261    0.6915 C   0  0  0  0  0  0  0  0  0  0  0  0
  -16.9084   -1.2059    1.0111 C   0  0  0  0  0  0  0  0  0  0  0  0
  -18.4540   -1.9598    1.1308 S   0  0  0  0  0  0  0  0  0  0  0  0
  -19.2218   -0.4911    1.5306 C   0  0  0  0  0  0  0  0  0  0  0  0
  -18.3336    0.5577    1.5755 C   0  0  0  0  0  0  0  0  0  0  0  0
  -16.9867    0.1612    1.2766 C   0  0  0  0  0  0  0  0  0  0  0  0
  -15.7943    0.9218    1.2173 C   0  0  0  0  0  0  0  0  0  0  0  0
  -14.5623    0.3212    0.8997 C   0  0  0  0  0  0  0  0  0  0  0  0
  -13.3789    1.0759    0.8401 C   0  0  0  0  0  0  0  0  0  0  0  0
  -10.8640   -1.4988   -0.0588 C   0  0  0  0  0  0  0  0  0  0  0  0
   -9.6944   -0.7157   -0.1130 C   0  0  0  0  0  0  0  0  0  0  0  0
   -8.1024   -1.2532   -0.4836 S   0  0  0  0  0  0  0  0  0  0  0  0
   -5.5886    1.6140   -1.3336 C   0  0  0  0  0  0  0  0  0  0  0  0
   -4.2297    1.8577   -1.5523 C   0  0  0  0  0  0  0  0  0  0  0  0
   -3.2513    1.0387   -0.9699 C   0  0  0  0  0  0  0  0  0  0  0  0
   -1.8821    1.2712   -1.1799 C   0  0  0  0  0  0  0  0  0  0  0  0
   -0.9015    0.4524   -0.5947 C   0  0  0  0  0  0  0  0  0  0  0  0
    0.4684    0.6848   -0.8042 C   0  0  0  0  0  0  0  0  0  0  0  0
    1.4496   -0.1333   -0.2190 C   0  0  0  0  0  0  0  0  0  0  0  0
    2.8194    0.0999   -0.4289 C   0  0  0  0  0  0  0  0  0  0  0  0
    3.8010   -0.7176    0.1560 C   0  0  0  0  0  0  0  0  0  0  0  0
    5.1723   -0.4838   -0.0537 C   0  0  0  0  0  0  0  0  0  0  0  0
    8.2311    0.1917    0.3626 C   0  0  0  0  0  0  0  0  0  0  0  0
    9.6301    0.1030    0.0555 C   0  0  0  0  0  0  0  0  0  0  0  0
   10.6314    1.1031    0.0211 C   0  0  0  0  0  0  0  0  0  0  0  0
   19.9053    2.7326   -1.6376 H   0  0  0  0  0  0  0  0  0  0  0  0
   17.7605    4.0870   -0.9514 H   0  0  0  0  0  0  0  0  0  0  0  0
   15.0160    3.5088   -0.4772 H   0  0  0  0  0  0  0  0  0  0  0  0
   12.6886    2.8104   -0.1109 H   0  0  0  0  0  0  0  0  0  0  0  0
   13.9052   -1.8689   -1.1848 H   0  0  0  0  0  0  0  0  0  0  0  0
   16.2423   -1.1897   -1.5555 H   0  0  0  0  0  0  0  0  0  0  0  0
   11.5741   -2.5719   -0.8200 H   0  0  0  0  0  0  0  0  0  0  0  0
    6.4715   -3.0168    1.8136 H   0  0  0  0  0  0  0  0  0  0  0  0
    4.0949   -3.4498    2.1875 H   0  0  0  0  0  0  0  0  0  0  0  0
    1.7246   -2.8631    1.8094 H   0  0  0  0  0  0  0  0  0  0  0  0
   -0.6271   -2.2764    1.4341 H   0  0  0  0  0  0  0  0  0  0  0  0
   -2.9783   -1.6910    1.0586 H   0  0  0  0  0  0  0  0  0  0  0  0
   -5.3295   -1.0994    0.6935 H   0  0  0  0  0  0  0  0  0  0  0  0
   -8.2045    2.2802    0.1830 H   0  0  0  0  0  0  0  0  0  0  0  0
  -10.9962    2.3174    0.6665 H   0  0  0  0  0  0  0  0  0  0  0  0
  -13.2341   -2.7166    0.1155 H   0  0  0  0  0  0  0  0  0  0  0  0
  -15.6602   -2.8940    0.4902 H   0  0  0  0  0  0  0  0  0  0  0  0
  -20.2872   -0.4650    1.7138 H   0  0  0  0  0  0  0  0  0  0  0  0
  -18.6302    1.5720    1.8124 H   0  0  0  0  0  0  0  0  0  0  0  0
  -15.8439    1.9887    1.4227 H   0  0  0  0  0  0  0  0  0  0  0  0
  -13.4197    2.1447    1.0443 H   0  0  0  0  0  0  0  0  0  0  0  0
  -10.8072   -2.5645   -0.2654 H   0  0  0  0  0  0  0  0  0  0  0  0
   -6.3215    2.2631   -1.8081 H   0  0  0  0  0  0  0  0  0  0  0  0
   -3.9423    2.6943   -2.1855 H   0  0  0  0  0  0  0  0  0  0  0  0
   -1.5741    2.1039   -1.8097 H   0  0  0  0  0  0  0  0  0  0  0  0
    0.7764    1.5173   -1.4343 H   0  0  0  0  0  0  0  0  0  0  0  0
    3.1269    0.9325   -1.0594 H   0  0  0  0  0  0  0  0  0  0  0  0
    5.4792    0.3444   -0.6901 H   0  0  0  0  0  0  0  0  0  0  0  0
    7.7349    1.1164    0.6316 H   0  0  0  0  0  0  0  0  0  0  0  0
   10.3558    2.1281    0.2585 H   0  0  0  0  0  0  0  0  0  0  0  0
  1  2  4  0
  2  3  4  0
  3  4  4  0
  4  5  4  0
  5  6  4  0
  6  7  4  0
  7  8  4  0
  8  9  4  0
  9 10  4  0
 10 11  4  0
 11 12  4  0
 12 13  4  0
  8 14  4  0
 14 15  4  0
 15 16  4  0
 16 17  4  0
 17 18  1  0
 18 19  4  0
 19 20  4  0
 20 21  4  0
 21 22  4  0
 22 23  4  0
 23 24  4  0
 24 25  4  0
 25 26  4  0
 26 27  4  0
 27 28  4  0
 28 29  4  0
 29 30  1  0
 30 31  4  0
 31 32  4  0
 32 33  4  0
 33 34  4  0
 34 35  4  0
 35 36  4  0
 36 37  4  0
 37 38  4  0
 38 39  4  0
 39 40  4  0
 40 41  4  0
 41 42  4  0
 42 43  4  0
 43 44  4  0
 44 45  4  0
 45 46  4  0
 35 47  4  0
 47 48  4  0
 48 49  4  0
 29 50  4  0
 50 51  4  0
 51 52  4  0
 52 53  4  0
 53 54  4  0
 54 55  4  0
 55 56  4  0
 56 57  4  0
 57 58  4  0
 58 59  4  0
 17 60  4  0
 60 61  4  0
 61 62  4  0
 13  1  4  0
 61 15  4  0
 12  3  4  0
 59 18  4  0
 10  5  4  0
 58 21  4  0
 62  7  4  0
 56 23  4  0
 54 25  4  0
 52 27  4  0
 49 30  4  0
 48 32  4  0
 46 34  4  0
 45 37  4  0
 43 39  4  0
  1 63  1  0
  2 64  1  0
  4 65  1  0
  6 66  1  0
  9 67  1  0
 11 68  1  0
 14 69  1  0
 19 70  1  0
 20 71  1  0
 22 72  1  0
 24 73  1  0
 26 74  1  0
 28 75  1  0
 31 76  1  0
 33 77  1  0
 36 78  1  0
 38 79  1  0
 41 80  1  0
 42 81  1  0
 44 82  1  0
 46 83  1  0
 47 84  1  0
 50 85  1  0
 51 86  1  0
 53 87  1  0
 55 88  1  0
 57 89  1  0
 59 90  1  0
 60 91  1  0
 62 92  1  0
M  END
