
     RDKit          3D

 92106  0  0  0  0  0  0  0  0999 V2000
   -9.3328   -1.9587   -6.4491 C   0  0  0  0  0  0  0  0  0  0  0  0
   -8.3170   -1.4465   -5.6765 C   0  0  0  0  0  0  0  0  0  0  0  0
   -8.6669   -1.3494   -4.2877 C   0  0  0  0  0  0  0  0  0  0  0  0
   -7.9193   -0.8834   -3.1796 C   0  0  0  0  0  0  0  0  0  0  0  0
   -8.4660   -0.8765   -1.8830 C   0  0  0  0  0  0  0  0  0  0  0  0
   -9.7732   -1.3383   -1.6802 C   0  0  0  0  0  0  0  0  0  0  0  0
  -10.3029   -1.3258   -0.3810 C   0  0  0  0  0  0  0  0  0  0  0  0
   -9.5611   -0.8638    0.7202 C   0  0  0  0  0  0  0  0  0  0  0  0
  -10.1353   -0.8731    1.9986 C   0  0  0  0  0  0  0  0  0  0  0  0
   -9.3977   -0.4127    3.1036 C   0  0  0  0  0  0  0  0  0  0  0  0
   -9.9379   -0.3519    4.7403 S   0  0  0  0  0  0  0  0  0  0  0  0
   -8.4615    0.2977    5.2829 C   0  0  0  0  0  0  0  0  0  0  0  0
   -7.5698    0.4692    4.2513 C   0  0  0  0  0  0  0  0  0  0  0  0
   -8.0933    0.0616    2.9689 C   0  0  0  0  0  0  0  0  0  0  0  0
   -7.5084    0.0721    1.6655 C   0  0  0  0  0  0  0  0  0  0  0  0
   -6.1323    0.5787    1.5512 C   0  0  0  0  0  0  0  0  0  0  0  0
   -5.8881    1.9341    1.2987 C   0  0  0  0  0  0  0  0  0  0  0  0
   -4.5807    2.4139    1.1933 C   0  0  0  0  0  0  0  0  0  0  0  0
   -3.4855    1.5491    1.3391 C   0  0  0  0  0  0  0  0  0  0  0  0
   -2.1651    2.0166    1.2379 C   0  0  0  0  0  0  0  0  0  0  0  0
   -1.0681    1.1512    1.3859 C   0  0  0  0  0  0  0  0  0  0  0  0
    0.2532    1.6190    1.2867 C   0  0  0  0  0  0  0  0  0  0  0  0
    1.3506    0.7545    1.4362 C   0  0  0  0  0  0  0  0  0  0  0  0
    2.6716    1.2232    1.3380 C   0  0  0  0  0  0  0  0  0  0  0  0
    3.7686    0.3591    1.4887 C   0  0  0  0  0  0  0  0  0  0  0  0
    5.0898    0.8281    1.3903 C   0  0  0  0  0  0  0  0  0  0  0  0
    6.1853   -0.0368    1.5413 C   0  0  0  0  0  0  0  0  0  0  0  0
    7.5616    0.4702    1.4319 C   0  0  0  0  0  0  0  0  0  0  0  0
    8.1890    0.9221    2.6331 C   0  0  0  0  0  0  0  0  0  0  0  0
    7.7104    0.9814    3.9937 C   0  0  0  0  0  0  0  0  0  0  0  0
    8.6350    1.4894    4.8744 C   0  0  0  0  0  0  0  0  0  0  0  0
   10.0894    1.9044    4.0944 S   0  0  0  0  0  0  0  0  0  0  0  0
    9.4946    1.4058    2.5544 C   0  0  0  0  0  0  0  0  0  0  0  0
   10.1927    1.4567    1.3351 C   0  0  0  0  0  0  0  0  0  0  0  0
    9.5764    1.0152    0.1566 C   0  0  0  0  0  0  0  0  0  0  0  0
   10.2783    1.0698   -1.0601 C   0  0  0  0  0  0  0  0  0  0  0  0
    9.7053    0.6413   -2.2669 C   0  0  0  0  0  0  0  0  0  0  0  0
    8.3952    0.1443   -2.2561 C   0  0  0  0  0  0  0  0  0  0  0  0
    7.8054   -0.2888   -3.4578 C   0  0  0  0  0  0  0  0  0  0  0  0
    8.5123   -0.2318   -4.6828 C   0  0  0  0  0  0  0  0  0  0  0  0
    8.1156   -0.6119   -6.0087 C   0  0  0  0  0  0  0  0  0  0  0  0
    9.1015   -0.3981   -6.9432 C   0  0  0  0  0  0  0  0  0  0  0  0
   10.5109    0.2585   -6.2440 S   0  0  0  0  0  0  0  0  0  0  0  0
    9.8150    0.2666   -4.6670 C   0  0  0  0  0  0  0  0  0  0  0  0
   10.4221    0.7044   -3.4738 C   0  0  0  0  0  0  0  0  0  0  0  0
    7.6953    0.0895   -1.0385 C   0  0  0  0  0  0  0  0  0  0  0  0
    8.2604    0.5188    0.1866 C   0  0  0  0  0  0  0  0  0  0  0  0
    5.9411   -1.3920    1.7950 C   0  0  0  0  0  0  0  0  0  0  0  0
    4.6335   -1.8725    1.8950 C   0  0  0  0  0  0  0  0  0  0  0  0
    3.5386   -1.0084    1.7439 C   0  0  0  0  0  0  0  0  0  0  0  0
    2.2181   -1.4766    1.8412 C   0  0  0  0  0  0  0  0  0  0  0  0
    1.1212   -0.6116    1.6907 C   0  0  0  0  0  0  0  0  0  0  0  0
   -0.2000   -1.0795    1.7889 C   0  0  0  0  0  0  0  0  0  0  0  0
   -1.2974   -0.2149    1.6401 C   0  0  0  0  0  0  0  0  0  0  0  0
   -2.6184   -0.6834    1.7402 C   0  0  0  0  0  0  0  0  0  0  0  0
   -3.7155    0.1813    1.5934 C   0  0  0  0  0  0  0  0  0  0  0  0
   -5.0366   -0.2872    1.6954 C   0  0  0  0  0  0  0  0  0  0  0  0
   -8.2475   -0.3950    0.5353 C   0  0  0  0  0  0  0  0  0  0  0  0
   -7.7258   -0.4142   -0.7809 C   0  0  0  0  0  0  0  0  0  0  0  0
  -10.5301   -1.8041   -2.7690 C   0  0  0  0  0  0  0  0  0  0  0  0
   -9.9659   -1.8034   -4.0597 C   0  0  0  0  0  0  0  0  0  0  0  0
  -10.7147   -2.3281   -5.5212 S   0  0  0  0  0  0  0  0  0  0  0  0
   -9.3295   -2.1339   -7.5161 H   0  0  0  0  0  0  0  0  0  0  0  0
   -7.3577   -1.1508   -6.0830 H   0  0  0  0  0  0  0  0  0  0  0  0
   -6.9050   -0.5269   -3.3448 H   0  0  0  0  0  0  0  0  0  0  0  0
  -11.3192   -1.6855   -0.2236 H   0  0  0  0  0  0  0  0  0  0  0  0
  -11.1502   -1.2345    2.1478 H   0  0  0  0  0  0  0  0  0  0  0  0
   -8.3131    0.5241    6.3298 H   0  0  0  0  0  0  0  0  0  0  0  0
   -6.5744    0.8716    4.3992 H   0  0  0  0  0  0  0  0  0  0  0  0
   -6.7206    2.6257    1.1829 H   0  0  0  0  0  0  0  0  0  0  0  0
   -4.4251    3.4725    0.9970 H   0  0  0  0  0  0  0  0  0  0  0  0
   -1.9882    3.0726    1.0413 H   0  0  0  0  0  0  0  0  0  0  0  0
    0.4303    2.6752    1.0907 H   0  0  0  0  0  0  0  0  0  0  0  0
    2.8491    2.2793    1.1412 H   0  0  0  0  0  0  0  0  0  0  0  0
    5.2755    1.8829    1.1913 H   0  0  0  0  0  0  0  0  0  0  0  0
    6.7224    0.6610    4.3034 H   0  0  0  0  0  0  0  0  0  0  0  0
    8.5225    1.6358    5.9399 H   0  0  0  0  0  0  0  0  0  0  0  0
   11.2099    1.8412    1.3183 H   0  0  0  0  0  0  0  0  0  0  0  0
   11.2969    1.4563   -1.0690 H   0  0  0  0  0  0  0  0  0  0  0  0
    6.7886   -0.6753   -3.4572 H   0  0  0  0  0  0  0  0  0  0  0  0
    7.1455   -1.0239   -6.2582 H   0  0  0  0  0  0  0  0  0  0  0  0
    9.0611   -0.5965   -8.0053 H   0  0  0  0  0  0  0  0  0  0  0  0
   11.4390    1.0874   -3.4974 H   0  0  0  0  0  0  0  0  0  0  0  0
    6.6778   -0.2999   -1.0485 H   0  0  0  0  0  0  0  0  0  0  0  0
    6.7736   -2.0829    1.9151 H   0  0  0  0  0  0  0  0  0  0  0  0
    4.4779   -2.9310    2.0923 H   0  0  0  0  0  0  0  0  0  0  0  0
    2.0414   -2.5325    2.0376 H   0  0  0  0  0  0  0  0  0  0  0  0
   -0.3775   -2.1355    1.9855 H   0  0  0  0  0  0  0  0  0  0  0  0
   -2.7961   -1.7394    1.9365 H   0  0  0  0  0  0  0  0  0  0  0  0
   -5.2221   -1.3427    1.8908 H   0  0  0  0  0  0  0  0  0  0  0  0
   -6.7108   -0.0591   -0.9567 H   0  0  0  0  0  0  0  0  0  0  0  0
  -11.5454   -2.1652   -2.6265 H   0  0  0  0  0  0  0  0  0  0  0  0
  1  2  4  0
  2  3  4  0
  3  4  4  0
  4  5  4  0
  5  6  4  0
  6  7  4  0
  7  8  4  0
  8  9  4  0
  9 10  4  0
 10 11  4  0
 11 12  4  0
 12 13  4  0
 13 14  4  0
 14 15  4  0
 15 16  1  0
 16 17  4  0
 17 18  4  0
 18 19  4  0
 19 20  4  0
 20 21  4  0
 21 22  4  0
 22 23  4  0
 23 24  4  0
 24 25  4  0
 25 26  4  0
 26 27  4  0
 27 28  1  0
 28 29  4  0
 29 30  4  0
 30 31  4  0
 31 32  4  0
 32 33  4  0
 33 34  4  0
 34 35  4  0
 35 36  4  0
 36 37  4  0
 37 38  4  0
 38 39  4  0
 39 40  4  0
 40 41  4  0
 41 42  4  0
 42 43  4  0
 43 44  4  0
 44 45  4  0
 38 46  4  0
 46 47  4  0
 27 48  4  0
 48 49  4  0
 49 50  4  0
 50 51  4  0
 51 52  4  0
 52 53  4  0
 53 54  4  0
 54 55  4  0
 55 56  4  0
 56 57  4  0
 15 58  4  0
 58 59  4  0
  6 60  4  0
 60 61  4  0
 61 62  4  0
 62  1  4  0
 61  3  4  0
 59  5  4  0
 58  8  4  0
 14 10  4  0
 57 16  4  0
 56 19  4  0
 54 21  4  0
 52 23  4  0
 50 25  4  0
 47 28  4  0
 33 29  4  0
 47 35  4  0
 45 37  4  0
 44 40  4  0
  1 63  1  0
  2 64  1  0
  4 65  1  0
  7 66  1  0
  9 67  1  0
 12 68  1  0
 13 69  1  0
 17 70  1  0
 18 71  1  0
 20 72  1  0
 22 73  1  0
 24 74  1  0
 26 75  1  0
 30 76  1  0
 31 77  1  0
 34 78  1  0
 36 79  1  0
 39 80  1  0
 41 81  1  0
 42 82  1  0
 45 83  1  0
 46 84  1  0
 48 85  1  0
 49 86  1  0
 51 87  1  0
 53 88  1  0
 55 89  1  0
 57 90  1  0
 59 91  1  0
 60 92  1  0
M  END
