
     RDKit          3D

 92106  0  0  0  0  0  0  0  0999 V2000
   -9.2881    5.6261   -2.1054 C   0  0  0  0  0  0  0  0  0  0  0  0
  -10.2290    4.7558   -1.6067 C   0  0  0  0  0  0  0  0  0  0  0  0
   -9.6912    3.4545   -1.3292 C   0  0  0  0  0  0  0  0  0  0  0  0
  -10.3071    2.2909   -0.8162 C   0  0  0  0  0  0  0  0  0  0  0  0
   -9.5813    1.1004   -0.6198 C   0  0  0  0  0  0  0  0  0  0  0  0
  -10.2313   -0.0292   -0.1085 C   0  0  0  0  0  0  0  0  0  0  0  0
   -9.5617   -1.2394    0.1079 C   0  0  0  0  0  0  0  0  0  0  0  0
   -8.1915   -1.3425   -0.1936 C   0  0  0  0  0  0  0  0  0  0  0  0
   -7.5558   -2.5879    0.0422 C   0  0  0  0  0  0  0  0  0  0  0  0
   -8.2760   -3.6827    0.5607 C   0  0  0  0  0  0  0  0  0  0  0  0
   -7.6694   -5.2582    0.9071 S   0  0  0  0  0  0  0  0  0  0  0  0
   -9.1913   -5.8045    1.4484 C   0  0  0  0  0  0  0  0  0  0  0  0
  -10.1474   -4.8190    1.3722 C   0  0  0  0  0  0  0  0  0  0  0  0
   -9.6317   -3.5821    0.8591 C   0  0  0  0  0  0  0  0  0  0  0  0
  -10.2679   -2.3423    0.6254 C   0  0  0  0  0  0  0  0  0  0  0  0
   -7.5113   -0.1963   -0.7194 C   0  0  0  0  0  0  0  0  0  0  0  0
   -6.0713   -0.2877   -1.0482 C   0  0  0  0  0  0  0  0  0  0  0  0
   -5.6548   -0.6718   -2.3291 C   0  0  0  0  0  0  0  0  0  0  0  0
   -4.2956   -0.7628   -2.6368 C   0  0  0  0  0  0  0  0  0  0  0  0
   -3.3204   -0.4726   -1.6705 C   0  0  0  0  0  0  0  0  0  0  0  0
   -1.9500   -0.5620   -1.9645 C   0  0  0  0  0  0  0  0  0  0  0  0
   -0.9728   -0.2728   -0.9972 C   0  0  0  0  0  0  0  0  0  0  0  0
    0.3985   -0.3621   -1.2903 C   0  0  0  0  0  0  0  0  0  0  0  0
    1.3761   -0.0739   -0.3227 C   0  0  0  0  0  0  0  0  0  0  0  0
    2.7475   -0.1630   -0.6160 C   0  0  0  0  0  0  0  0  0  0  0  0
    3.7245    0.1229    0.3523 C   0  0  0  0  0  0  0  0  0  0  0  0
    5.0961    0.0319    0.0593 C   0  0  0  0  0  0  0  0  0  0  0  0
    6.0711    0.3125    1.0307 C   0  0  0  0  0  0  0  0  0  0  0  0
    7.5115    0.2027    0.7081 C   0  0  0  0  0  0  0  0  0  0  0  0
    8.1805   -1.0535    0.8753 C   0  0  0  0  0  0  0  0  0  0  0  0
    7.5350   -2.2268    1.3420 C   0  0  0  0  0  0  0  0  0  0  0  0
    8.2439   -3.4363    1.4858 C   0  0  0  0  0  0  0  0  0  0  0  0
    7.6240   -4.9481    2.0340 S   0  0  0  0  0  0  0  0  0  0  0  0
    9.1381   -5.7137    1.8638 C   0  0  0  0  0  0  0  0  0  0  0  0
   10.1017   -4.8483    1.4013 C   0  0  0  0  0  0  0  0  0  0  0  0
    9.5982   -3.5232    1.1772 C   0  0  0  0  0  0  0  0  0  0  0  0
   10.2447   -2.3556    0.7134 C   0  0  0  0  0  0  0  0  0  0  0  0
    9.5497   -1.1400    0.5643 C   0  0  0  0  0  0  0  0  0  0  0  0
   10.2298   -0.0068    0.1023 C   0  0  0  0  0  0  0  0  0  0  0  0
    9.5917    1.2279   -0.0658 C   0  0  0  0  0  0  0  0  0  0  0  0
    8.2226    1.3524    0.2331 C   0  0  0  0  0  0  0  0  0  0  0  0
    7.6195    2.6219    0.0448 C   0  0  0  0  0  0  0  0  0  0  0  0
    8.3701    3.7193   -0.4232 C   0  0  0  0  0  0  0  0  0  0  0  0
    7.8056    5.3229   -0.7064 S   0  0  0  0  0  0  0  0  0  0  0  0
    9.3441    5.8530   -1.2160 C   0  0  0  0  0  0  0  0  0  0  0  0
   10.2746    4.8412   -1.1760 C   0  0  0  0  0  0  0  0  0  0  0  0
    9.7249    3.5972   -0.7180 C   0  0  0  0  0  0  0  0  0  0  0  0
   10.3285    2.3331   -0.5333 C   0  0  0  0  0  0  0  0  0  0  0  0
    5.6532    0.6928    2.3122 C   0  0  0  0  0  0  0  0  0  0  0  0
    4.2937    0.7902    2.6165 C   0  0  0  0  0  0  0  0  0  0  0  0
    3.3194    0.5075    1.6470 C   0  0  0  0  0  0  0  0  0  0  0  0
    1.9487    0.5981    1.9391 C   0  0  0  0  0  0  0  0  0  0  0  0
    0.9723    0.3122    0.9699 C   0  0  0  0  0  0  0  0  0  0  0  0
   -0.3988    0.4026    1.2628 C   0  0  0  0  0  0  0  0  0  0  0  0
   -1.3763    0.1150    0.2953 C   0  0  0  0  0  0  0  0  0  0  0  0
   -2.7473    0.2054    0.5897 C   0  0  0  0  0  0  0  0  0  0  0  0
   -3.7246   -0.0837   -0.3767 C   0  0  0  0  0  0  0  0  0  0  0  0
   -5.0957    0.0048   -0.0813 C   0  0  0  0  0  0  0  0  0  0  0  0
   -8.2112    1.0356   -0.9324 C   0  0  0  0  0  0  0  0  0  0  0  0
   -7.5954    2.2052   -1.4457 C   0  0  0  0  0  0  0  0  0  0  0  0
   -8.3353    3.3896   -1.6365 C   0  0  0  0  0  0  0  0  0  0  0  0
   -7.7547    4.8935   -2.2459 S   0  0  0  0  0  0  0  0  0  0  0  0
   -9.4278    6.6586   -2.3947 H   0  0  0  0  0  0  0  0  0  0  0  0
  -11.2630    5.0341   -1.4450 H   0  0  0  0  0  0  0  0  0  0  0  0
  -11.3665    2.3308   -0.5723 H   0  0  0  0  0  0  0  0  0  0  0  0
  -11.2932    0.0357    0.1288 H   0  0  0  0  0  0  0  0  0  0  0  0
   -6.4981   -2.7212   -0.1731 H   0  0  0  0  0  0  0  0  0  0  0  0
   -9.3134   -6.8209    1.7968 H   0  0  0  0  0  0  0  0  0  0  0  0
  -11.1772   -4.9715    1.6706 H   0  0  0  0  0  0  0  0  0  0  0  0
  -11.3274   -2.2529    0.8552 H   0  0  0  0  0  0  0  0  0  0  0  0
   -6.3919   -0.9037   -3.0955 H   0  0  0  0  0  0  0  0  0  0  0  0
   -4.0051   -1.0637   -3.6409 H   0  0  0  0  0  0  0  0  0  0  0  0
   -1.6404   -0.8632   -2.9636 H   0  0  0  0  0  0  0  0  0  0  0  0
    0.7115   -0.6615   -2.2892 H   0  0  0  0  0  0  0  0  0  0  0  0
    3.0612   -0.4610   -1.6150 H   0  0  0  0  0  0  0  0  0  0  0  0
    5.4173   -0.2648   -0.9383 H   0  0  0  0  0  0  0  0  0  0  0  0
    6.4781   -2.2146    1.5984 H   0  0  0  0  0  0  0  0  0  0  0  0
    9.2507   -6.7605    2.1104 H   0  0  0  0  0  0  0  0  0  0  0  0
   11.1285   -5.1461    1.2283 H   0  0  0  0  0  0  0  0  0  0  0  0
   11.3035   -2.4124    0.4700 H   0  0  0  0  0  0  0  0  0  0  0  0
   11.2906   -0.0886   -0.1340 H   0  0  0  0  0  0  0  0  0  0  0  0
    6.5637    2.7721    0.2586 H   0  0  0  0  0  0  0  0  0  0  0  0
    9.4938    6.8797   -1.5207 H   0  0  0  0  0  0  0  0  0  0  0  0
   11.3099    4.9797   -1.4623 H   0  0  0  0  0  0  0  0  0  0  0  0
   11.3870    2.2268   -0.7614 H   0  0  0  0  0  0  0  0  0  0  0  0
    6.3895    0.9147    3.0823 H   0  0  0  0  0  0  0  0  0  0  0  0
    4.0017    1.0881    3.6212 H   0  0  0  0  0  0  0  0  0  0  0  0
    1.6367    0.8952    2.9388 H   0  0  0  0  0  0  0  0  0  0  0  0
   -0.7101    0.7029    2.2617 H   0  0  0  0  0  0  0  0  0  0  0  0
   -3.0594    0.5050    1.5887 H   0  0  0  0  0  0  0  0  0  0  0  0
   -5.4155    0.3037    0.9159 H   0  0  0  0  0  0  0  0  0  0  0  0
   -6.5384    2.2096   -1.7019 H   0  0  0  0  0  0  0  0  0  0  0  0
  1  2  4  0
  2  3  4  0
  3  4  4  0
  4  5  4  0
  5  6  4  0
  6  7  4  0
  7  8  4  0
  8  9  4  0
  9 10  4  0
 10 11  4  0
 11 12  4  0
 12 13  4  0
 13 14  4  0
 14 15  4  0
  8 16  4  0
 16 17  1  0
 17 18  4  0
 18 19  4  0
 19 20  4  0
 20 21  4  0
 21 22  4  0
 22 23  4  0
 23 24  4  0
 24 25  4  0
 25 26  4  0
 26 27  4  0
 27 28  4  0
 28 29  1  0
 29 30  4  0
 30 31  4  0
 31 32  4  0
 32 33  4  0
 33 34  4  0
 34 35  4  0
 35 36  4  0
 36 37  4  0
 37 38  4  0
 38 39  4  0
 39 40  4  0
 40 41  4  0
 41 42  4  0
 42 43  4  0
 43 44  4  0
 44 45  4  0
 45 46  4  0
 46 47  4  0
 47 48  4  0
 28 49  4  0
 49 50  4  0
 50 51  4  0
 51 52  4  0
 52 53  4  0
 53 54  4  0
 54 55  4  0
 55 56  4  0
 56 57  4  0
 57 58  4  0
 16 59  4  0
 59 60  4  0
 60 61  4  0
 61 62  4  0
 62  1  4  0
 61  3  4  0
 59  5  4  0
 15  7  4  0
 58 17  4  0
 14 10  4  0
 57 20  4  0
 55 22  4  0
 53 24  4  0
 51 26  4  0
 41 29  4  0
 47 43  4  0
 38 30  4  0
 48 40  4  0
 36 32  4  0
  1 63  1  0
  2 64  1  0
  4 65  1  0
  6 66  1  0
  9 67  1  0
 12 68  1  0
 13 69  1  0
 15 70  1  0
 18 71  1  0
 19 72  1  0
 21 73  1  0
 23 74  1  0
 25 75  1  0
 27 76  1  0
 31 77  1  0
 34 78  1  0
 35 79  1  0
 37 80  1  0
 39 81  1  0
 42 82  1  0
 45 83  1  0
 46 84  1  0
 48 85  1  0
 49 86  1  0
 50 87  1  0
 52 88  1  0
 54 89  1  0
 56 90  1  0
 58 91  1  0
 60 92  1  0
M  END
