
     RDKit          3D

 92106  0  0  0  0  0  0  0  0999 V2000
   15.7683    2.5684    2.1059 C   0  0  0  0  0  0  0  0  0  0  0  0
   14.4288    2.8252    1.9310 C   0  0  0  0  0  0  0  0  0  0  0  0
   13.7210    1.7214    1.3467 C   0  0  0  0  0  0  0  0  0  0  0  0
   12.3540    1.5795    1.0076 C   0  0  0  0  0  0  0  0  0  0  0  0
   11.8655    0.3912    0.4348 C   0  0  0  0  0  0  0  0  0  0  0  0
   10.5093    0.2506    0.0973 C   0  0  0  0  0  0  0  0  0  0  0  0
   10.0131   -0.9319   -0.4761 C   0  0  0  0  0  0  0  0  0  0  0  0
   10.8917   -1.9999   -0.7157 C   0  0  0  0  0  0  0  0  0  0  0  0
   12.2480   -1.8590   -0.3777 C   0  0  0  0  0  0  0  0  0  0  0  0
   12.7461   -0.6764    0.1939 C   0  0  0  0  0  0  0  0  0  0  0  0
   14.1054   -0.5511    0.5250 C   0  0  0  0  0  0  0  0  0  0  0  0
   14.5752    0.6472    1.0973 C   0  0  0  0  0  0  0  0  0  0  0  0
   16.1926    1.0054    1.5736 S   0  0  0  0  0  0  0  0  0  0  0  0
   10.4072   -3.1889   -1.2846 C   0  0  0  0  0  0  0  0  0  0  0  0
    9.0416   -3.3007   -1.6146 C   0  0  0  0  0  0  0  0  0  0  0  0
    8.2582   -4.6679   -2.3093 S   0  0  0  0  0  0  0  0  0  0  0  0
    6.7451   -3.8851   -2.3271 C   0  0  0  0  0  0  0  0  0  0  0  0
    6.8104   -2.6052   -1.8180 C   0  0  0  0  0  0  0  0  0  0  0  0
    5.6208   -1.7668   -1.7674 C   0  0  0  0  0  0  0  0  0  0  0  0
    5.5582   -0.5977   -2.5288 C   0  0  0  0  0  0  0  0  0  0  0  0
    4.4220    0.2125   -2.4764 C   0  0  0  0  0  0  0  0  0  0  0  0
    3.3320   -0.1316   -1.6612 C   0  0  0  0  0  0  0  0  0  0  0  0
    2.1838    0.6744   -1.5971 C   0  0  0  0  0  0  0  0  0  0  0  0
    1.0935    0.3327   -0.7794 C   0  0  0  0  0  0  0  0  0  0  0  0
   -0.0547    1.1398   -0.7144 C   0  0  0  0  0  0  0  0  0  0  0  0
   -1.1456    0.7994    0.1030 C   0  0  0  0  0  0  0  0  0  0  0  0
   -2.2932    1.6076    0.1671 C   0  0  0  0  0  0  0  0  0  0  0  0
   -3.3840    1.2680    0.9843 C   0  0  0  0  0  0  0  0  0  0  0  0
   -4.5310    2.0777    1.0479 C   0  0  0  0  0  0  0  0  0  0  0  0
   -5.6127    1.7272    1.8653 C   0  0  0  0  0  0  0  0  0  0  0  0
   -6.7977    2.5720    1.9221 C   0  0  0  0  0  0  0  0  0  0  0  0
   -6.7231    3.8471    2.4424 C   0  0  0  0  0  0  0  0  0  0  0  0
   -8.2296    4.6421    2.4297 S   0  0  0  0  0  0  0  0  0  0  0  0
   -9.0232    3.2876    1.7221 C   0  0  0  0  0  0  0  0  0  0  0  0
  -10.3892    3.1912    1.3886 C   0  0  0  0  0  0  0  0  0  0  0  0
  -10.8838    2.0119    0.8083 C   0  0  0  0  0  0  0  0  0  0  0  0
  -10.0148    0.9377    0.5618 C   0  0  0  0  0  0  0  0  0  0  0  0
  -10.5221   -0.2346   -0.0231 C   0  0  0  0  0  0  0  0  0  0  0  0
  -11.8790   -0.3586   -0.3659 C   0  0  0  0  0  0  0  0  0  0  0  0
  -12.3778   -1.5367   -0.9509 C   0  0  0  0  0  0  0  0  0  0  0  0
  -13.7451   -1.6617   -1.2962 C   0  0  0  0  0  0  0  0  0  0  0  0
  -14.4618   -2.7529   -1.8930 C   0  0  0  0  0  0  0  0  0  0  0  0
  -15.7981   -2.4813   -2.0707 C   0  0  0  0  0  0  0  0  0  0  0  0
  -16.2086   -0.9190   -1.5258 S   0  0  0  0  0  0  0  0  0  0  0  0
  -14.5894   -0.5813   -1.0401 C   0  0  0  0  0  0  0  0  0  0  0  0
  -14.1094    0.6070   -0.4552 C   0  0  0  0  0  0  0  0  0  0  0  0
  -12.7497    0.7155   -0.1183 C   0  0  0  0  0  0  0  0  0  0  0  0
  -12.2408    1.8876    0.4655 C   0  0  0  0  0  0  0  0  0  0  0  0
   -8.6548    1.0532    0.9026 C   0  0  0  0  0  0  0  0  0  0  0  0
   -8.1362    2.2339    1.4955 C   0  0  0  0  0  0  0  0  0  0  0  0
   -5.5512    0.5577    2.6260 C   0  0  0  0  0  0  0  0  0  0  0  0
   -4.4159   -0.2542    2.5724 C   0  0  0  0  0  0  0  0  0  0  0  0
   -3.3257    0.0884    1.7565 C   0  0  0  0  0  0  0  0  0  0  0  0
   -2.1778   -0.7185    1.6922 C   0  0  0  0  0  0  0  0  0  0  0  0
   -1.0870   -0.3772    0.8747 C   0  0  0  0  0  0  0  0  0  0  0  0
    0.0613   -1.1844    0.8099 C   0  0  0  0  0  0  0  0  0  0  0  0
    1.1523   -0.8440   -0.0076 C   0  0  0  0  0  0  0  0  0  0  0  0
    2.3003   -1.6516   -0.0718 C   0  0  0  0  0  0  0  0  0  0  0  0
    3.3910   -1.3111   -0.8888 C   0  0  0  0  0  0  0  0  0  0  0  0
    4.5390   -2.1192   -0.9512 C   0  0  0  0  0  0  0  0  0  0  0  0
    8.1460   -2.2530   -1.3953 C   0  0  0  0  0  0  0  0  0  0  0  0
    8.6542   -1.0629   -0.8127 C   0  0  0  0  0  0  0  0  0  0  0  0
   16.5198    3.2254    2.5218 H   0  0  0  0  0  0  0  0  0  0  0  0
   13.9672    3.7648    2.2084 H   0  0  0  0  0  0  0  0  0  0  0  0
   11.6789    2.4108    1.1979 H   0  0  0  0  0  0  0  0  0  0  0  0
    9.8259    1.0776    0.2842 H   0  0  0  0  0  0  0  0  0  0  0  0
   12.9303   -2.6874   -0.5635 H   0  0  0  0  0  0  0  0  0  0  0  0
   14.7989   -1.3683    0.3445 H   0  0  0  0  0  0  0  0  0  0  0  0
   11.0748   -4.0260   -1.4727 H   0  0  0  0  0  0  0  0  0  0  0  0
    5.8793   -4.4010   -2.7208 H   0  0  0  0  0  0  0  0  0  0  0  0
    6.3883   -0.3120   -3.1713 H   0  0  0  0  0  0  0  0  0  0  0  0
    4.3949    1.1171   -3.0802 H   0  0  0  0  0  0  0  0  0  0  0  0
    2.1382    1.5840   -2.1935 H   0  0  0  0  0  0  0  0  0  0  0  0
   -0.1001    2.0493   -1.3110 H   0  0  0  0  0  0  0  0  0  0  0  0
   -2.3379    2.5171   -0.4297 H   0  0  0  0  0  0  0  0  0  0  0  0
   -4.5853    2.9849    0.4490 H   0  0  0  0  0  0  0  0  0  0  0  0
   -5.8535    4.3528    2.8411 H   0  0  0  0  0  0  0  0  0  0  0  0
  -11.0494    4.0329    1.5823 H   0  0  0  0  0  0  0  0  0  0  0  0
   -9.8470   -1.0671   -0.2156 H   0  0  0  0  0  0  0  0  0  0  0  0
  -11.7106   -2.3731   -1.1465 H   0  0  0  0  0  0  0  0  0  0  0  0
  -14.0084   -3.6945   -2.1773 H   0  0  0  0  0  0  0  0  0  0  0  0
  -16.5544   -3.1269   -2.4954 H   0  0  0  0  0  0  0  0  0  0  0  0
  -14.7953    1.4296   -0.2700 H   0  0  0  0  0  0  0  0  0  0  0  0
  -12.9151    2.7213    0.6567 H   0  0  0  0  0  0  0  0  0  0  0  0
   -7.9763    0.2254    0.7069 H   0  0  0  0  0  0  0  0  0  0  0  0
   -6.3803    0.2738    3.2705 H   0  0  0  0  0  0  0  0  0  0  0  0
   -4.3890   -1.1585    3.1766 H   0  0  0  0  0  0  0  0  0  0  0  0
   -2.1328   -1.6282    2.2886 H   0  0  0  0  0  0  0  0  0  0  0  0
    0.1068   -2.0939    1.4064 H   0  0  0  0  0  0  0  0  0  0  0  0
    2.3463   -2.5610    0.5251 H   0  0  0  0  0  0  0  0  0  0  0  0
    4.5946   -3.0256   -0.3512 H   0  0  0  0  0  0  0  0  0  0  0  0
    7.9684   -0.2399   -0.6225 H   0  0  0  0  0  0  0  0  0  0  0  0
  1  2  4  0
  2  3  4  0
  3  4  4  0
  4  5  4  0
  5  6  4  0
  6  7  4  0
  7  8  4  0
  8  9  4  0
  9 10  4  0
 10 11  4  0
 11 12  4  0
 12 13  4  0
  8 14  4  0
 14 15  4  0
 15 16  4  0
 16 17  4  0
 17 18  4  0
 18 19  1  0
 19 20  4  0
 20 21  4  0
 21 22  4  0
 22 23  4  0
 23 24  4  0
 24 25  4  0
 25 26  4  0
 26 27  4  0
 27 28  4  0
 28 29  4  0
 29 30  4  0
 30 31  1  0
 31 32  4  0
 32 33  4  0
 33 34  4  0
 34 35  4  0
 35 36  4  0
 36 37  4  0
 37 38  4  0
 38 39  4  0
 39 40  4  0
 40 41  4  0
 41 42  4  0
 42 43  4  0
 43 44  4  0
 44 45  4  0
 45 46  4  0
 46 47  4  0
 47 48  4  0
 37 49  4  0
 49 50  4  0
 30 51  4  0
 51 52  4  0
 52 53  4  0
 53 54  4  0
 54 55  4  0
 55 56  4  0
 56 57  4  0
 57 58  4  0
 58 59  4  0
 59 60  4  0
 18 61  4  0
 61 62  4  0
 13  1  4  0
 61 15  4  0
 12  3  4  0
 60 19  4  0
 10  5  4  0
 59 22  4  0
 62  7  4  0
 57 24  4  0
 55 26  4  0
 53 28  4  0
 50 31  4  0
 50 34  4  0
 48 36  4  0
 47 39  4  0
 45 41  4  0
  1 63  1  0
  2 64  1  0
  4 65  1  0
  6 66  1  0
  9 67  1  0
 11 68  1  0
 14 69  1  0
 17 70  1  0
 20 71  1  0
 21 72  1  0
 23 73  1  0
 25 74  1  0
 27 75  1  0
 29 76  1  0
 32 77  1  0
 35 78  1  0
 38 79  1  0
 40 80  1  0
 42 81  1  0
 43 82  1  0
 46 83  1  0
 48 84  1  0
 49 85  1  0
 51 86  1  0
 52 87  1  0
 54 88  1  0
 56 89  1  0
 58 90  1  0
 60 91  1  0
 62 92  1  0
M  END
