
     RDKit          3D

 92106  0  0  0  0  0  0  0  0999 V2000
   11.8145    3.4749    4.7363 C   0  0  0  0  0  0  0  0  0  0  0  0
   10.5302    3.1058    4.4121 C   0  0  0  0  0  0  0  0  0  0  0  0
   10.4816    2.0444    3.4469 C   0  0  0  0  0  0  0  0  0  0  0  0
    9.3759    1.3857    2.8575 C   0  0  0  0  0  0  0  0  0  0  0  0
    9.5589    0.3547    1.9181 C   0  0  0  0  0  0  0  0  0  0  0  0
   10.8600   -0.0314    1.5558 C   0  0  0  0  0  0  0  0  0  0  0  0
   11.0313   -1.0628    0.6175 C   0  0  0  0  0  0  0  0  0  0  0  0
    9.9343   -1.7169    0.0325 C   0  0  0  0  0  0  0  0  0  0  0  0
   10.1212   -2.7486   -0.9019 C   0  0  0  0  0  0  0  0  0  0  0  0
    9.0016   -3.3867   -1.4725 C   0  0  0  0  0  0  0  0  0  0  0  0
    9.0218   -4.6681   -2.6227 S   0  0  0  0  0  0  0  0  0  0  0  0
    7.3208   -4.7385   -2.6851 C   0  0  0  0  0  0  0  0  0  0  0  0
    6.7261   -3.8125   -1.8540 C   0  0  0  0  0  0  0  0  0  0  0  0
    5.2754   -3.7051   -1.7837 C   0  0  0  0  0  0  0  0  0  0  0  0
    4.5110   -4.7624   -1.2856 C   0  0  0  0  0  0  0  0  0  0  0  0
    3.1208   -4.6481   -1.2138 C   0  0  0  0  0  0  0  0  0  0  0  0
    2.4732   -3.4765   -1.6383 C   0  0  0  0  0  0  0  0  0  0  0  0
    1.0764   -3.3469   -1.5714 C   0  0  0  0  0  0  0  0  0  0  0  0
    0.4277   -2.1749   -1.9960 C   0  0  0  0  0  0  0  0  0  0  0  0
   -0.9698   -2.0452   -1.9292 C   0  0  0  0  0  0  0  0  0  0  0  0
   -1.6193   -0.8738   -2.3539 C   0  0  0  0  0  0  0  0  0  0  0  0
   -3.0168   -0.7450   -2.2864 C   0  0  0  0  0  0  0  0  0  0  0  0
   -3.6659    0.4258   -2.7115 C   0  0  0  0  0  0  0  0  0  0  0  0
   -5.0634    0.5530   -2.6431 C   0  0  0  0  0  0  0  0  0  0  0  0
   -5.7002    1.7250   -3.0695 C   0  0  0  0  0  0  0  0  0  0  0  0
   -7.1495    1.8393   -2.9800 C   0  0  0  0  0  0  0  0  0  0  0  0
   -7.9146    1.9679   -4.1202 C   0  0  0  0  0  0  0  0  0  0  0  0
   -9.5808    2.0588   -3.7766 S   0  0  0  0  0  0  0  0  0  0  0  0
   -9.3149    1.9268   -2.0803 C   0  0  0  0  0  0  0  0  0  0  0  0
  -10.2981    1.9241   -1.0704 C   0  0  0  0  0  0  0  0  0  0  0  0
   -9.9143    1.8136    0.2760 C   0  0  0  0  0  0  0  0  0  0  0  0
  -10.8719    1.8072    1.3041 C   0  0  0  0  0  0  0  0  0  0  0  0
  -10.5024    1.7002    2.6554 C   0  0  0  0  0  0  0  0  0  0  0  0
   -9.1411    1.5978    2.9861 C   0  0  0  0  0  0  0  0  0  0  0  0
   -8.1835    1.6042    1.9586 C   0  0  0  0  0  0  0  0  0  0  0  0
   -8.5546    1.7098    0.6080 C   0  0  0  0  0  0  0  0  0  0  0  0
   -7.5888    1.7139   -0.4142 C   0  0  0  0  0  0  0  0  0  0  0  0
   -7.9560    1.8172   -1.7813 C   0  0  0  0  0  0  0  0  0  0  0  0
   -8.7594    1.4909    4.3358 C   0  0  0  0  0  0  0  0  0  0  0  0
   -9.7244    1.4842    5.3717 C   0  0  0  0  0  0  0  0  0  0  0  0
   -9.5661    1.3862    6.7951 C   0  0  0  0  0  0  0  0  0  0  0  0
  -10.7642    1.4160    7.4694 C   0  0  0  0  0  0  0  0  0  0  0  0
  -12.0897    1.5616    6.4072 S   0  0  0  0  0  0  0  0  0  0  0  0
  -11.0697    1.5870    5.0177 C   0  0  0  0  0  0  0  0  0  0  0  0
  -11.4720    1.6951    3.6719 C   0  0  0  0  0  0  0  0  0  0  0  0
   -4.9360    2.7814   -3.5701 C   0  0  0  0  0  0  0  0  0  0  0  0
   -3.5458    2.6667   -3.6430 C   0  0  0  0  0  0  0  0  0  0  0  0
   -2.8978    1.4957   -3.2176 C   0  0  0  0  0  0  0  0  0  0  0  0
   -1.5009    1.3660   -3.2845 C   0  0  0  0  0  0  0  0  0  0  0  0
   -0.8523    0.1943   -2.8585 C   0  0  0  0  0  0  0  0  0  0  0  0
    0.5451    0.0646   -2.9252 C   0  0  0  0  0  0  0  0  0  0  0  0
    1.1946   -1.1066   -2.5001 C   0  0  0  0  0  0  0  0  0  0  0  0
    2.5922   -1.2350   -2.5673 C   0  0  0  0  0  0  0  0  0  0  0  0
    3.2415   -2.4058   -2.1424 C   0  0  0  0  0  0  0  0  0  0  0  0
    4.6392   -2.5326   -2.2093 C   0  0  0  0  0  0  0  0  0  0  0  0
    7.6976   -3.0183   -1.1379 C   0  0  0  0  0  0  0  0  0  0  0  0
    7.5305   -1.9780   -0.1870 C   0  0  0  0  0  0  0  0  0  0  0  0
    8.6347   -1.3294    0.3942 C   0  0  0  0  0  0  0  0  0  0  0  0
    8.4618   -0.2990    1.3332 C   0  0  0  0  0  0  0  0  0  0  0  0
   11.9675    0.6129    2.1317 C   0  0  0  0  0  0  0  0  0  0  0  0
   11.7633    1.6431    3.0705 C   0  0  0  0  0  0  0  0  0  0  0  0
   12.9745    2.5560    3.8899 S   0  0  0  0  0  0  0  0  0  0  0  0
   12.1278    4.2419    5.4312 H   0  0  0  0  0  0  0  0  0  0  0  0
    9.6546    3.5733    4.8453 H   0  0  0  0  0  0  0  0  0  0  0  0
    8.3720    1.6906    3.1438 H   0  0  0  0  0  0  0  0  0  0  0  0
   12.0400   -1.3631    0.3370 H   0  0  0  0  0  0  0  0  0  0  0  0
   11.1217   -3.0620   -1.1892 H   0  0  0  0  0  0  0  0  0  0  0  0
    6.8377   -5.4527   -3.3387 H   0  0  0  0  0  0  0  0  0  0  0  0
    4.9891   -5.6767   -0.9413 H   0  0  0  0  0  0  0  0  0  0  0  0
    2.5456   -5.4833   -0.8199 H   0  0  0  0  0  0  0  0  0  0  0  0
    0.4832   -4.1727   -1.1821 H   0  0  0  0  0  0  0  0  0  0  0  0
   -1.5624   -2.8717   -1.5406 H   0  0  0  0  0  0  0  0  0  0  0  0
   -3.6099   -1.5708   -1.8968 H   0  0  0  0  0  0  0  0  0  0  0  0
   -5.6627   -0.2708   -2.2594 H   0  0  0  0  0  0  0  0  0  0  0  0
   -7.5768    2.0036   -5.1474 H   0  0  0  0  0  0  0  0  0  0  0  0
  -11.3472    2.0091   -1.3428 H   0  0  0  0  0  0  0  0  0  0  0  0
  -11.9272    1.8877    1.0472 H   0  0  0  0  0  0  0  0  0  0  0  0
   -7.1281    1.5255    2.2149 H   0  0  0  0  0  0  0  0  0  0  0  0
   -6.5332    1.6408   -0.1604 H   0  0  0  0  0  0  0  0  0  0  0  0
   -7.7073    1.4118    4.6001 H   0  0  0  0  0  0  0  0  0  0  0  0
   -8.6097    1.2977    7.2955 H   0  0  0  0  0  0  0  0  0  0  0  0
  -10.9248    1.3591    8.5372 H   0  0  0  0  0  0  0  0  0  0  0  0
  -12.5292    1.7736    3.4321 H   0  0  0  0  0  0  0  0  0  0  0  0
   -5.4123    3.7029   -3.8972 H   0  0  0  0  0  0  0  0  0  0  0  0
   -2.9704    3.5033   -4.0337 H   0  0  0  0  0  0  0  0  0  0  0  0
   -0.9075    2.1910   -3.6753 H   0  0  0  0  0  0  0  0  0  0  0  0
    1.1381    0.8901   -3.3154 H   0  0  0  0  0  0  0  0  0  0  0  0
    3.1847   -0.4093   -2.9577 H   0  0  0  0  0  0  0  0  0  0  0  0
    5.2385   -1.7126   -2.6014 H   0  0  0  0  0  0  0  0  0  0  0  0
    6.5214   -1.6854    0.0960 H   0  0  0  0  0  0  0  0  0  0  0  0
    7.4531   -0.0003    1.6142 H   0  0  0  0  0  0  0  0  0  0  0  0
   12.9803    0.3256    1.8614 H   0  0  0  0  0  0  0  0  0  0  0  0
  1  2  4  0
  2  3  4  0
  3  4  4  0
  4  5  4  0
  5  6  4  0
  6  7  4  0
  7  8  4  0
  8  9  4  0
  9 10  4  0
 10 11  4  0
 11 12  4  0
 12 13  4  0
 13 14  1  0
 14 15  4  0
 15 16  4  0
 16 17  4  0
 17 18  4  0
 18 19  4  0
 19 20  4  0
 20 21  4  0
 21 22  4  0
 22 23  4  0
 23 24  4  0
 24 25  4  0
 25 26  1  0
 26 27  4  0
 27 28  4  0
 28 29  4  0
 29 30  4  0
 30 31  4  0
 31 32  4  0
 32 33  4  0
 33 34  4  0
 34 35  4  0
 35 36  4  0
 36 37  4  0
 37 38  4  0
 34 39  4  0
 39 40  4  0
 40 41  4  0
 41 42  4  0
 42 43  4  0
 43 44  4  0
 44 45  4  0
 25 46  4  0
 46 47  4  0
 47 48  4  0
 48 49  4  0
 49 50  4  0
 50 51  4  0
 51 52  4  0
 52 53  4  0
 53 54  4  0
 54 55  4  0
 13 56  4  0
 56 57  4  0
 57 58  4  0
 58 59  4  0
  6 60  4  0
 60 61  4  0
 61 62  4  0
 62  1  4  0
 61  3  4  0
 59  5  4  0
 58  8  4  0
 56 10  4  0
 55 14  4  0
 54 17  4  0
 52 19  4  0
 50 21  4  0
 48 23  4  0
 38 26  4  0
 44 40  4  0
 38 29  4  0
 36 31  4  0
 45 33  4  0
  1 63  1  0
  2 64  1  0
  4 65  1  0
  7 66  1  0
  9 67  1  0
 12 68  1  0
 15 69  1  0
 16 70  1  0
 18 71  1  0
 20 72  1  0
 22 73  1  0
 24 74  1  0
 27 75  1  0
 30 76  1  0
 32 77  1  0
 35 78  1  0
 37 79  1  0
 39 80  1  0
 41 81  1  0
 42 82  1  0
 45 83  1  0
 46 84  1  0
 47 85  1  0
 49 86  1  0
 51 87  1  0
 53 88  1  0
 55 89  1  0
 57 90  1  0
 59 91  1  0
 60 92  1  0
M  END
