
     RDKit          3D

 92106  0  0  0  0  0  0  0  0999 V2000
    9.5013   -6.3483   -1.7629 C   0  0  0  0  0  0  0  0  0  0  0  0
   10.4064   -5.3146   -1.8187 C   0  0  0  0  0  0  0  0  0  0  0  0
    9.8597   -4.0692   -1.3599 C   0  0  0  0  0  0  0  0  0  0  0  0
   10.4487   -2.7860   -1.2578 C   0  0  0  0  0  0  0  0  0  0  0  0
    9.7171   -1.6859   -0.7731 C   0  0  0  0  0  0  0  0  0  0  0  0
   10.2955   -0.4119   -0.6708 C   0  0  0  0  0  0  0  0  0  0  0  0
    9.5732    0.6945   -0.1901 C   0  0  0  0  0  0  0  0  0  0  0  0
    8.2319    0.5436    0.2062 C   0  0  0  0  0  0  0  0  0  0  0  0
    7.6649   -0.7499    0.0989 C   0  0  0  0  0  0  0  0  0  0  0  0
    8.3827   -1.8582   -0.3829 C   0  0  0  0  0  0  0  0  0  0  0  0
    7.7825   -3.1251   -0.4774 C   0  0  0  0  0  0  0  0  0  0  0  0
    8.5296   -4.2148   -0.9654 C   0  0  0  0  0  0  0  0  0  0  0  0
    7.9892   -5.8398   -1.1616 S   0  0  0  0  0  0  0  0  0  0  0  0
    7.5063    1.6754    0.6912 C   0  0  0  0  0  0  0  0  0  0  0  0
    6.0998    1.5800    1.1140 C   0  0  0  0  0  0  0  0  0  0  0  0
    5.7690    1.3309    2.4515 C   0  0  0  0  0  0  0  0  0  0  0  0
    4.4330    1.2301    2.8472 C   0  0  0  0  0  0  0  0  0  0  0  0
    3.3956    1.3736    1.9135 C   0  0  0  0  0  0  0  0  0  0  0  0
    2.0477    1.2718    2.2946 C   0  0  0  0  0  0  0  0  0  0  0  0
    1.0094    1.4135    1.3587 C   0  0  0  0  0  0  0  0  0  0  0  0
   -0.3390    1.3103    1.7391 C   0  0  0  0  0  0  0  0  0  0  0  0
   -1.3777    1.4519    0.8037 C   0  0  0  0  0  0  0  0  0  0  0  0
   -2.7258    1.3476    1.1853 C   0  0  0  0  0  0  0  0  0  0  0  0
   -3.7646    1.4889    0.2507 C   0  0  0  0  0  0  0  0  0  0  0  0
   -5.1130    1.3819    0.6324 C   0  0  0  0  0  0  0  0  0  0  0  0
   -6.1509    1.5226   -0.3026 C   0  0  0  0  0  0  0  0  0  0  0  0
   -7.5572    1.3948    0.1122 C   0  0  0  0  0  0  0  0  0  0  0  0
   -8.2617    2.5554    0.5423 C   0  0  0  0  0  0  0  0  0  0  0  0
   -7.6716    4.1852    0.6555 S   0  0  0  0  0  0  0  0  0  0  0  0
   -9.1592    4.7789    1.2269 C   0  0  0  0  0  0  0  0  0  0  0  0
  -10.0984    3.7838    1.3374 C   0  0  0  0  0  0  0  0  0  0  0  0
   -9.5974    2.4956    0.9466 C   0  0  0  0  0  0  0  0  0  0  0  0
  -10.2492    1.2424    0.9206 C   0  0  0  0  0  0  0  0  0  0  0  0
   -9.5877    0.0780    0.5041 C   0  0  0  0  0  0  0  0  0  0  0  0
   -8.2421    0.1405    0.0985 C   0  0  0  0  0  0  0  0  0  0  0  0
   -7.6300   -1.0702   -0.3086 C   0  0  0  0  0  0  0  0  0  0  0  0
   -8.3098   -2.3006   -0.3206 C   0  0  0  0  0  0  0  0  0  0  0  0
   -7.6665   -3.4801   -0.7317 C   0  0  0  0  0  0  0  0  0  0  0  0
   -8.3764   -4.6965   -0.7325 C   0  0  0  0  0  0  0  0  0  0  0  0
   -7.7805   -6.2460   -1.1961 S   0  0  0  0  0  0  0  0  0  0  0  0
   -9.2747   -6.9999   -0.8714 C   0  0  0  0  0  0  0  0  0  0  0  0
  -10.2151   -6.1040   -0.4196 C   0  0  0  0  0  0  0  0  0  0  0  0
   -9.7112   -4.7626   -0.3329 C   0  0  0  0  0  0  0  0  0  0  0  0
  -10.3441   -3.5650    0.0786 C   0  0  0  0  0  0  0  0  0  0  0  0
   -9.6499   -2.3406    0.0858 C   0  0  0  0  0  0  0  0  0  0  0  0
  -10.2714   -1.1506    0.4931 C   0  0  0  0  0  0  0  0  0  0  0  0
   -5.8198    1.7765   -1.6392 C   0  0  0  0  0  0  0  0  0  0  0  0
   -4.4841    1.8852   -2.0333 C   0  0  0  0  0  0  0  0  0  0  0  0
   -3.4469    1.7426   -1.0994 C   0  0  0  0  0  0  0  0  0  0  0  0
   -2.0990    1.8470   -1.4804 C   0  0  0  0  0  0  0  0  0  0  0  0
   -1.0603    1.7040   -0.5452 C   0  0  0  0  0  0  0  0  0  0  0  0
    0.2883    1.8072   -0.9255 C   0  0  0  0  0  0  0  0  0  0  0  0
    1.3269    1.6646    0.0098 C   0  0  0  0  0  0  0  0  0  0  0  0
    2.6750    1.7674   -0.3717 C   0  0  0  0  0  0  0  0  0  0  0  0
    3.7133    1.6250    0.5630 C   0  0  0  0  0  0  0  0  0  0  0  0
    5.0616    1.7265    0.1802 C   0  0  0  0  0  0  0  0  0  0  0  0
    8.1675    2.9349    0.7597 C   0  0  0  0  0  0  0  0  0  0  0  0
    7.5226    4.4546    1.3001 S   0  0  0  0  0  0  0  0  0  0  0  0
    8.9840    5.2771    1.0172 C   0  0  0  0  0  0  0  0  0  0  0  0
    9.9537    4.4406    0.5228 C   0  0  0  0  0  0  0  0  0  0  0  0
    9.4995    3.0869    0.3677 C   0  0  0  0  0  0  0  0  0  0  0  0
   10.1918    1.9504   -0.1069 C   0  0  0  0  0  0  0  0  0  0  0  0
    9.6559   -7.3801   -2.0472 H   0  0  0  0  0  0  0  0  0  0  0  0
   11.4222   -5.4386   -2.1733 H   0  0  0  0  0  0  0  0  0  0  0  0
   11.4851   -2.6603   -1.5627 H   0  0  0  0  0  0  0  0  0  0  0  0
   11.3332   -0.2787   -0.9741 H   0  0  0  0  0  0  0  0  0  0  0  0
    6.6286   -0.9037    0.3993 H   0  0  0  0  0  0  0  0  0  0  0  0
    6.7478   -3.2731   -0.1784 H   0  0  0  0  0  0  0  0  0  0  0  0
    6.5550    1.2138    3.1949 H   0  0  0  0  0  0  0  0  0  0  0  0
    4.2095    1.0382    3.8942 H   0  0  0  0  0  0  0  0  0  0  0  0
    1.8029    1.0793    3.3377 H   0  0  0  0  0  0  0  0  0  0  0  0
   -0.5844    1.1166    2.7818 H   0  0  0  0  0  0  0  0  0  0  0  0
   -2.9713    1.1536    2.2280 H   0  0  0  0  0  0  0  0  0  0  0  0
   -5.3653    1.1847    1.6733 H   0  0  0  0  0  0  0  0  0  0  0  0
   -9.2764    5.8294    1.4550 H   0  0  0  0  0  0  0  0  0  0  0  0
  -11.1088    3.9630    1.6842 H   0  0  0  0  0  0  0  0  0  0  0  0
  -11.2900    1.1942    1.2347 H   0  0  0  0  0  0  0  0  0  0  0  0
   -6.5878   -1.0587   -0.6278 H   0  0  0  0  0  0  0  0  0  0  0  0
   -6.6268   -3.4638   -1.0490 H   0  0  0  0  0  0  0  0  0  0  0  0
   -9.3939   -8.0633   -1.0265 H   0  0  0  0  0  0  0  0  0  0  0  0
  -11.2264   -6.3915   -0.1595 H   0  0  0  0  0  0  0  0  0  0  0  0
  -11.3845   -3.6041    0.3927 H   0  0  0  0  0  0  0  0  0  0  0  0
  -11.3132   -1.1823    0.8095 H   0  0  0  0  0  0  0  0  0  0  0  0
   -6.6055    1.8913   -2.3834 H   0  0  0  0  0  0  0  0  0  0  0  0
   -4.2610    2.0824   -3.0794 H   0  0  0  0  0  0  0  0  0  0  0  0
   -1.8551    2.0435   -2.5229 H   0  0  0  0  0  0  0  0  0  0  0  0
    0.5349    2.0037   -1.9675 H   0  0  0  0  0  0  0  0  0  0  0  0
    2.9213    1.9618   -1.4142 H   0  0  0  0  0  0  0  0  0  0  0  0
    5.3141    1.9208   -0.8613 H   0  0  0  0  0  0  0  0  0  0  0  0
    9.0646    6.3351    1.2253 H   0  0  0  0  0  0  0  0  0  0  0  0
   10.9534    4.7776    0.2778 H   0  0  0  0  0  0  0  0  0  0  0  0
   11.2294    2.0674   -0.4133 H   0  0  0  0  0  0  0  0  0  0  0  0
  1  2  4  0
  2  3  4  0
  3  4  4  0
  4  5  4  0
  5  6  4  0
  6  7  4  0
  7  8  4  0
  8  9  4  0
  9 10  4  0
 10 11  4  0
 11 12  4  0
 12 13  4  0
  8 14  4  0
 14 15  1  0
 15 16  4  0
 16 17  4  0
 17 18  4  0
 18 19  4  0
 19 20  4  0
 20 21  4  0
 21 22  4  0
 22 23  4  0
 23 24  4  0
 24 25  4  0
 25 26  4  0
 26 27  1  0
 27 28  4  0
 28 29  4  0
 29 30  4  0
 30 31  4  0
 31 32  4  0
 32 33  4  0
 33 34  4  0
 34 35  4  0
 35 36  4  0
 36 37  4  0
 37 38  4  0
 38 39  4  0
 39 40  4  0
 40 41  4  0
 41 42  4  0
 42 43  4  0
 43 44  4  0
 44 45  4  0
 45 46  4  0
 26 47  4  0
 47 48  4  0
 48 49  4  0
 49 50  4  0
 50 51  4  0
 51 52  4  0
 52 53  4  0
 53 54  4  0
 54 55  4  0
 55 56  4  0
 14 57  4  0
 57 58  4  0
 58 59  4  0
 59 60  4  0
 60 61  4  0
 61 62  4  0
 13  1  4  0
 56 15  4  0
 61 57  4  0
 12  3  4  0
 55 18  4  0
 10  5  4  0
 53 20  4  0
 62  7  4  0
 51 22  4  0
 49 24  4  0
 35 27  4  0
 45 37  4  0
 32 28  4  0
 46 34  4  0
 43 39  4  0
  1 63  1  0
  2 64  1  0
  4 65  1  0
  6 66  1  0
  9 67  1  0
 11 68  1  0
 16 69  1  0
 17 70  1  0
 19 71  1  0
 21 72  1  0
 23 73  1  0
 25 74  1  0
 30 75  1  0
 31 76  1  0
 33 77  1  0
 36 78  1  0
 38 79  1  0
 41 80  1  0
 42 81  1  0
 44 82  1  0
 46 83  1  0
 47 84  1  0
 48 85  1  0
 50 86  1  0
 52 87  1  0
 54 88  1  0
 56 89  1  0
 59 90  1  0
 60 91  1  0
 62 92  1  0
M  END
