
     RDKit          3D

 92106  0  0  0  0  0  0  0  0999 V2000
  -11.9602   -3.0814   -2.6923 C   0  0  0  0  0  0  0  0  0  0  0  0
  -12.4234   -1.9076   -2.1459 C   0  0  0  0  0  0  0  0  0  0  0  0
  -11.4174   -1.2033   -1.4025 C   0  0  0  0  0  0  0  0  0  0  0  0
  -11.4819    0.0222   -0.6969 C   0  0  0  0  0  0  0  0  0  0  0  0
  -10.3557    0.5370   -0.0281 C   0  0  0  0  0  0  0  0  0  0  0  0
   -9.1475   -0.1714   -0.0571 C   0  0  0  0  0  0  0  0  0  0  0  0
   -9.0663   -1.3899   -0.7524 C   0  0  0  0  0  0  0  0  0  0  0  0
  -10.2033   -1.8900   -1.4167 C   0  0  0  0  0  0  0  0  0  0  0  0
  -10.3185   -3.3529   -2.3212 S   0  0  0  0  0  0  0  0  0  0  0  0
   -8.0315    0.3564    0.6158 C   0  0  0  0  0  0  0  0  0  0  0  0
   -8.0725    1.5813    1.3263 C   0  0  0  0  0  0  0  0  0  0  0  0
   -9.2957    2.2759    1.3429 C   0  0  0  0  0  0  0  0  0  0  0  0
  -10.4141    1.7513    0.6718 C   0  0  0  0  0  0  0  0  0  0  0  0
   -9.4015    3.4942    2.0295 C   0  0  0  0  0  0  0  0  0  0  0  0
   -8.3011    4.0558    2.7148 C   0  0  0  0  0  0  0  0  0  0  0  0
   -8.2128    5.2775    3.4649 C   0  0  0  0  0  0  0  0  0  0  0  0
   -6.9635    5.4924    3.9918 C   0  0  0  0  0  0  0  0  0  0  0  0
   -5.8850    4.2383    3.5963 S   0  0  0  0  0  0  0  0  0  0  0  0
   -7.0873    3.3649    2.6966 C   0  0  0  0  0  0  0  0  0  0  0  0
   -6.9418    2.1247    2.0115 C   0  0  0  0  0  0  0  0  0  0  0  0
   -5.6363    1.4450    2.0293 C   0  0  0  0  0  0  0  0  0  0  0  0
   -5.3153    0.5392    3.0477 C   0  0  0  0  0  0  0  0  0  0  0  0
   -4.0799   -0.1127    3.0572 C   0  0  0  0  0  0  0  0  0  0  0  0
   -3.1356    0.1253    2.0474 C   0  0  0  0  0  0  0  0  0  0  0  0
   -1.8904   -0.5243    2.0419 C   0  0  0  0  0  0  0  0  0  0  0  0
   -0.9443   -0.2864    1.0308 C   0  0  0  0  0  0  0  0  0  0  0  0
    0.3013   -0.9366    1.0246 C   0  0  0  0  0  0  0  0  0  0  0  0
    1.2480   -0.6991    0.0140 C   0  0  0  0  0  0  0  0  0  0  0  0
    2.4931   -1.3502    0.0088 C   0  0  0  0  0  0  0  0  0  0  0  0
    3.4395   -1.1132   -1.0014 C   0  0  0  0  0  0  0  0  0  0  0  0
    4.6846   -1.7650   -1.0058 C   0  0  0  0  0  0  0  0  0  0  0  0
    5.6313   -1.5260   -2.0146 C   0  0  0  0  0  0  0  0  0  0  0  0
    6.9352   -2.2085   -1.9971 C   0  0  0  0  0  0  0  0  0  0  0  0
    7.0743   -3.4554   -2.6713 C   0  0  0  0  0  0  0  0  0  0  0  0
    5.8659   -4.3344   -3.5569 S   0  0  0  0  0  0  0  0  0  0  0  0
    6.9395   -5.5950   -3.9451 C   0  0  0  0  0  0  0  0  0  0  0  0
    8.1918   -5.3777   -3.4264 C   0  0  0  0  0  0  0  0  0  0  0  0
    8.2866   -4.1488   -2.6891 C   0  0  0  0  0  0  0  0  0  0  0  0
    9.3918   -3.5828   -2.0152 C   0  0  0  0  0  0  0  0  0  0  0  0
    9.2923   -2.3578   -1.3398 C   0  0  0  0  0  0  0  0  0  0  0  0
   10.4155   -1.8284   -0.6804 C   0  0  0  0  0  0  0  0  0  0  0  0
   10.3621   -0.6076    0.0086 C   0  0  0  0  0  0  0  0  0  0  0  0
    9.1547    0.1022    0.0388 C   0  0  0  0  0  0  0  0  0  0  0  0
    9.0784    1.3267    0.7238 C   0  0  0  0  0  0  0  0  0  0  0  0
   10.2198    1.8321    1.3762 C   0  0  0  0  0  0  0  0  0  0  0  0
   10.3415    3.3029    2.2668 S   0  0  0  0  0  0  0  0  0  0  0  0
   11.9858    3.0346    2.6283 C   0  0  0  0  0  0  0  0  0  0  0  0
   12.4446    1.8553    2.0899 C   0  0  0  0  0  0  0  0  0  0  0  0
   11.4333    1.1445    1.3601 C   0  0  0  0  0  0  0  0  0  0  0  0
   11.4926   -0.0875    0.6654 C   0  0  0  0  0  0  0  0  0  0  0  0
    8.0344   -0.4303   -0.6227 C   0  0  0  0  0  0  0  0  0  0  0  0
    8.0703   -1.6611   -1.3228 C   0  0  0  0  0  0  0  0  0  0  0  0
    5.3131   -0.6178   -3.0317 C   0  0  0  0  0  0  0  0  0  0  0  0
    4.0789    0.0363   -3.0412 C   0  0  0  0  0  0  0  0  0  0  0  0
    3.1333   -0.2014   -2.0323 C   0  0  0  0  0  0  0  0  0  0  0  0
    1.8884    0.4492   -2.0269 C   0  0  0  0  0  0  0  0  0  0  0  0
    0.9417    0.2114   -1.0160 C   0  0  0  0  0  0  0  0  0  0  0  0
   -0.3040    0.8617   -1.0098 C   0  0  0  0  0  0  0  0  0  0  0  0
   -1.2508    0.6239    0.0008 C   0  0  0  0  0  0  0  0  0  0  0  0
   -2.4963    1.2744    0.0062 C   0  0  0  0  0  0  0  0  0  0  0  0
   -3.4432    1.0361    1.0160 C   0  0  0  0  0  0  0  0  0  0  0  0
   -4.6901    1.6851    1.0200 C   0  0  0  0  0  0  0  0  0  0  0  0
  -12.5086   -3.7941   -3.2930 H   0  0  0  0  0  0  0  0  0  0  0  0
  -13.4417   -1.5605   -2.2699 H   0  0  0  0  0  0  0  0  0  0  0  0
  -12.4235    0.5663   -0.6786 H   0  0  0  0  0  0  0  0  0  0  0  0
   -8.1353   -1.9504   -0.7834 H   0  0  0  0  0  0  0  0  0  0  0  0
   -7.1003   -0.2089    0.5828 H   0  0  0  0  0  0  0  0  0  0  0  0
  -11.3540    2.3014    0.6941 H   0  0  0  0  0  0  0  0  0  0  0  0
  -10.3480    4.0312    2.0429 H   0  0  0  0  0  0  0  0  0  0  0  0
   -9.0380    5.9646    3.6063 H   0  0  0  0  0  0  0  0  0  0  0  0
   -6.6320    6.3288    4.5916 H   0  0  0  0  0  0  0  0  0  0  0  0
   -6.0302    0.3369    3.8428 H   0  0  0  0  0  0  0  0  0  0  0  0
   -3.8613   -0.8095    3.8633 H   0  0  0  0  0  0  0  0  0  0  0  0
   -1.6537   -1.2271    2.8387 H   0  0  0  0  0  0  0  0  0  0  0  0
    0.5383   -1.6408    1.8203 H   0  0  0  0  0  0  0  0  0  0  0  0
    2.7301   -2.0543    0.8046 H   0  0  0  0  0  0  0  0  0  0  0  0
    4.9269   -2.4713   -0.2130 H   0  0  0  0  0  0  0  0  0  0  0  0
    6.6034   -6.4366   -4.5350 H   0  0  0  0  0  0  0  0  0  0  0  0
    9.0150   -6.0678   -3.5647 H   0  0  0  0  0  0  0  0  0  0  0  0
   10.3371   -4.1219   -2.0284 H   0  0  0  0  0  0  0  0  0  0  0  0
   11.3547   -2.3797   -0.7031 H   0  0  0  0  0  0  0  0  0  0  0  0
    8.1478    1.8880    0.7557 H   0  0  0  0  0  0  0  0  0  0  0  0
   12.5389    3.7529    3.2178 H   0  0  0  0  0  0  0  0  0  0  0  0
   13.4638    1.5094    2.2101 H   0  0  0  0  0  0  0  0  0  0  0  0
   12.4334   -0.6324    0.6459 H   0  0  0  0  0  0  0  0  0  0  0  0
    7.1039    0.1360   -0.5889 H   0  0  0  0  0  0  0  0  0  0  0  0
    6.0299   -0.4149   -3.8250 H   0  0  0  0  0  0  0  0  0  0  0  0
    3.8622    0.7347   -3.8464 H   0  0  0  0  0  0  0  0  0  0  0  0
    1.6524    1.1524   -2.8237 H   0  0  0  0  0  0  0  0  0  0  0  0
   -0.5405    1.5659   -1.8056 H   0  0  0  0  0  0  0  0  0  0  0  0
   -2.7330    1.9790   -0.7892 H   0  0  0  0  0  0  0  0  0  0  0  0
   -4.9343    2.3895    0.2261 H   0  0  0  0  0  0  0  0  0  0  0  0
  1  2  4  0
  2  3  4  0
  3  4  4  0
  4  5  4  0
  5  6  4  0
  6  7  4  0
  7  8  4  0
  8  9  4  0
  6 10  4  0
 10 11  4  0
 11 12  4  0
 12 13  4  0
 12 14  4  0
 14 15  4  0
 15 16  4  0
 16 17  4  0
 17 18  4  0
 18 19  4  0
 19 20  4  0
 20 21  1  0
 21 22  4  0
 22 23  4  0
 23 24  4  0
 24 25  4  0
 25 26  4  0
 26 27  4  0
 27 28  4  0
 28 29  4  0
 29 30  4  0
 30 31  4  0
 31 32  4  0
 32 33  1  0
 33 34  4  0
 34 35  4  0
 35 36  4  0
 36 37  4  0
 37 38  4  0
 38 39  4  0
 39 40  4  0
 40 41  4  0
 41 42  4  0
 42 43  4  0
 43 44  4  0
 44 45  4  0
 45 46  4  0
 46 47  4  0
 47 48  4  0
 48 49  4  0
 49 50  4  0
 43 51  4  0
 51 52  4  0
 32 53  4  0
 53 54  4  0
 54 55  4  0
 55 56  4  0
 56 57  4  0
 57 58  4  0
 58 59  4  0
 59 60  4  0
 60 61  4  0
 61 62  4  0
  9  1  4  0
 20 11  4  0
 62 21  4  0
  8  3  4  0
 19 15  4  0
 61 24  4  0
 13  5  4  0
 59 26  4  0
 57 28  4  0
 55 30  4  0
 52 33  4  0
 38 34  4  0
 52 40  4  0
 50 42  4  0
 49 45  4  0
  1 63  1  0
  2 64  1  0
  4 65  1  0
  7 66  1  0
 10 67  1  0
 13 68  1  0
 14 69  1  0
 16 70  1  0
 17 71  1  0
 22 72  1  0
 23 73  1  0
 25 74  1  0
 27 75  1  0
 29 76  1  0
 31 77  1  0
 36 78  1  0
 37 79  1  0
 39 80  1  0
 41 81  1  0
 44 82  1  0
 47 83  1  0
 48 84  1  0
 50 85  1  0
 51 86  1  0
 53 87  1  0
 54 88  1  0
 56 89  1  0
 58 90  1  0
 60 91  1  0
 62 92  1  0
M  END
