
     RDKit          3D

 86 98  0  0  0  0  0  0  0  0999 V2000
    9.6218   -2.7479    0.9157 C   0  0  0  0  0  0  0  0  0  0  0  0
   10.2843   -1.5588    0.6271 C   0  0  0  0  0  0  0  0  0  0  0  0
    9.6060   -0.4736    0.0514 C   0  0  0  0  0  0  0  0  0  0  0  0
   10.2987    0.7169   -0.2301 C   0  0  0  0  0  0  0  0  0  0  0  0
    9.6708    1.8280   -0.8039 C   0  0  0  0  0  0  0  0  0  0  0  0
   10.4454    2.9907   -1.0529 C   0  0  0  0  0  0  0  0  0  0  0  0
    9.7013    4.0209   -1.6248 C   0  0  0  0  0  0  0  0  0  0  0  0
   10.2370    5.2413   -1.9532 C   0  0  0  0  0  0  0  0  0  0  0  0
    9.0447    6.2780   -2.6379 S   0  0  0  0  0  0  0  0  0  0  0  0
    7.8133    5.0835   -2.4902 C   0  0  0  0  0  0  0  0  0  0  0  0
    8.3074    3.9302   -1.9334 C   0  0  0  0  0  0  0  0  0  0  0  0
    7.5252    2.8009   -1.6993 C   0  0  0  0  0  0  0  0  0  0  0  0
    8.2596    1.7361   -1.1159 C   0  0  0  0  0  0  0  0  0  0  0  0
    7.5881    0.5398   -0.8277 C   0  0  0  0  0  0  0  0  0  0  0  0
    8.2267   -0.5813   -0.2437 C   0  0  0  0  0  0  0  0  0  0  0  0
    7.5515   -1.8010    0.0564 C   0  0  0  0  0  0  0  0  0  0  0  0
    6.1170   -1.9940   -0.2084 C   0  0  0  0  0  0  0  0  0  0  0  0
    5.6831   -2.5968   -1.3948 C   0  0  0  0  0  0  0  0  0  0  0  0
    4.3203   -2.7773   -1.6438 C   0  0  0  0  0  0  0  0  0  0  0  0
    3.3587   -2.3600   -0.7106 C   0  0  0  0  0  0  0  0  0  0  0  0
    1.9847   -2.5325   -0.9461 C   0  0  0  0  0  0  0  0  0  0  0  0
    1.0227   -2.1133   -0.0114 C   0  0  0  0  0  0  0  0  0  0  0  0
   -0.3521   -2.2840   -0.2463 C   0  0  0  0  0  0  0  0  0  0  0  0
   -1.3138   -1.8649    0.6886 C   0  0  0  0  0  0  0  0  0  0  0  0
   -2.6884   -2.0356    0.4527 C   0  0  0  0  0  0  0  0  0  0  0  0
   -3.6501   -1.6170    1.3872 C   0  0  0  0  0  0  0  0  0  0  0  0
   -5.0252   -1.7871    1.1503 C   0  0  0  0  0  0  0  0  0  0  0  0
   -5.9859   -1.3644    2.0827 C   0  0  0  0  0  0  0  0  0  0  0  0
   -7.4215   -1.5472    1.8156 C   0  0  0  0  0  0  0  0  0  0  0  0
   -8.0509   -2.6915    2.3384 C   0  0  0  0  0  0  0  0  0  0  0  0
   -9.4026   -2.9281    2.1165 C   0  0  0  0  0  0  0  0  0  0  0  0
  -10.1471   -2.0228    1.3664 C   0  0  0  0  0  0  0  0  0  0  0  0
   -9.5554   -0.8693    0.8293 C   0  0  0  0  0  0  0  0  0  0  0  0
  -10.3294    0.0296    0.0750 C   0  0  0  0  0  0  0  0  0  0  0  0
   -9.7895    1.1947   -0.4812 C   0  0  0  0  0  0  0  0  0  0  0  0
  -10.6422    2.0462   -1.2303 C   0  0  0  0  0  0  0  0  0  0  0  0
   -9.9811    3.1682   -1.7265 C   0  0  0  0  0  0  0  0  0  0  0  0
  -10.6015    4.1326   -2.4808 C   0  0  0  0  0  0  0  0  0  0  0  0
   -9.4974    5.3761   -2.9281 S   0  0  0  0  0  0  0  0  0  0  0  0
   -8.1899    4.6138   -2.1068 C   0  0  0  0  0  0  0  0  0  0  0  0
   -8.5942    3.4449   -1.5116 C   0  0  0  0  0  0  0  0  0  0  0  0
   -7.7364    2.6257   -0.7804 C   0  0  0  0  0  0  0  0  0  0  0  0
   -8.3852    1.4744   -0.2640 C   0  0  0  0  0  0  0  0  0  0  0  0
   -7.6318    0.5651    0.4912 C   0  0  0  0  0  0  0  0  0  0  0  0
   -8.1811   -0.6149    1.0492 C   0  0  0  0  0  0  0  0  0  0  0  0
   -5.5499   -0.7685    3.2719 C   0  0  0  0  0  0  0  0  0  0  0  0
   -4.1865   -0.5936    3.5218 C   0  0  0  0  0  0  0  0  0  0  0  0
   -3.2261   -1.0124    2.5882 C   0  0  0  0  0  0  0  0  0  0  0  0
   -1.8518   -0.8419    2.8238 C   0  0  0  0  0  0  0  0  0  0  0  0
   -0.8905   -1.2606    1.8883 C   0  0  0  0  0  0  0  0  0  0  0  0
    0.4842   -1.0897    2.1231 C   0  0  0  0  0  0  0  0  0  0  0  0
    1.4456   -1.5082    1.1881 C   0  0  0  0  0  0  0  0  0  0  0  0
    2.8197   -1.3358    1.4243 C   0  0  0  0  0  0  0  0  0  0  0  0
    3.7815   -1.7538    0.4901 C   0  0  0  0  0  0  0  0  0  0  0  0
    5.1558   -1.5798    0.7270 C   0  0  0  0  0  0  0  0  0  0  0  0
    8.2662   -2.8669    0.6327 C   0  0  0  0  0  0  0  0  0  0  0  0
   10.1610   -3.5791    1.3620 H   0  0  0  0  0  0  0  0  0  0  0  0
   11.3455   -1.4855    0.8574 H   0  0  0  0  0  0  0  0  0  0  0  0
   11.3605    0.7737    0.0078 H   0  0  0  0  0  0  0  0  0  0  0  0
   11.5001    3.0630   -0.8208 H   0  0  0  0  0  0  0  0  0  0  0  0
   11.2526    5.5925   -1.8353 H   0  0  0  0  0  0  0  0  0  0  0  0
    6.8073    5.3026   -2.8202 H   0  0  0  0  0  0  0  0  0  0  0  0
    6.4703    2.7355   -1.9337 H   0  0  0  0  0  0  0  0  0  0  0  0
    6.5266    0.4741   -1.0664 H   0  0  0  0  0  0  0  0  0  0  0  0
    6.4089   -2.9261   -2.1358 H   0  0  0  0  0  0  0  0  0  0  0  0
    4.0157   -3.2471   -2.5764 H   0  0  0  0  0  0  0  0  0  0  0  0
    1.6591   -3.0012   -1.8731 H   0  0  0  0  0  0  0  0  0  0  0  0
   -0.6800   -2.7517   -1.1731 H   0  0  0  0  0  0  0  0  0  0  0  0
   -3.0168   -2.5021   -0.4747 H   0  0  0  0  0  0  0  0  0  0  0  0
   -5.3609   -2.2522    0.2243 H   0  0  0  0  0  0  0  0  0  0  0  0
   -7.4767   -3.4080    2.9233 H   0  0  0  0  0  0  0  0  0  0  0  0
   -9.8750   -3.8170    2.5256 H   0  0  0  0  0  0  0  0  0  0  0  0
  -11.2035   -2.2271    1.2032 H   0  0  0  0  0  0  0  0  0  0  0  0
  -11.3852   -0.1905   -0.0804 H   0  0  0  0  0  0  0  0  0  0  0  0
  -11.6919    1.8405   -1.3951 H   0  0  0  0  0  0  0  0  0  0  0  0
  -11.6332    4.1879   -2.7991 H   0  0  0  0  0  0  0  0  0  0  0  0
   -7.2098    5.0704   -2.1129 H   0  0  0  0  0  0  0  0  0  0  0  0
   -6.6869    2.8375   -0.6197 H   0  0  0  0  0  0  0  0  0  0  0  0
   -6.5762    0.7813    0.6545 H   0  0  0  0  0  0  0  0  0  0  0  0
   -6.2748   -0.4318    4.0104 H   0  0  0  0  0  0  0  0  0  0  0  0
   -3.8809   -0.1250    4.4547 H   0  0  0  0  0  0  0  0  0  0  0  0
   -1.5253   -0.3753    3.7515 H   0  0  0  0  0  0  0  0  0  0  0  0
    0.8124   -0.6229    3.0503 H   0  0  0  0  0  0  0  0  0  0  0  0
    3.1475   -0.8680    2.3511 H   0  0  0  0  0  0  0  0  0  0  0  0
    5.4901   -1.1111    1.6516 H   0  0  0  0  0  0  0  0  0  0  0  0
    7.7557   -3.7999    0.8661 H   0  0  0  0  0  0  0  0  0  0  0  0
  1  2  4  0
  2  3  4  0
  3  4  4  0
  4  5  4  0
  5  6  4  0
  6  7  4  0
  7  8  4  0
  8  9  4  0
  9 10  4  0
 10 11  4  0
 11 12  4  0
 12 13  4  0
 13 14  4  0
 14 15  4  0
 15 16  4  0
 16 17  1  0
 17 18  4  0
 18 19  4  0
 19 20  4  0
 20 21  4  0
 21 22  4  0
 22 23  4  0
 23 24  4  0
 24 25  4  0
 25 26  4  0
 26 27  4  0
 27 28  4  0
 28 29  1  0
 29 30  4  0
 30 31  4  0
 31 32  4  0
 32 33  4  0
 33 34  4  0
 34 35  4  0
 35 36  4  0
 36 37  4  0
 37 38  4  0
 38 39  4  0
 39 40  4  0
 40 41  4  0
 41 42  4  0
 42 43  4  0
 43 44  4  0
 44 45  4  0
 28 46  4  0
 46 47  4  0
 47 48  4  0
 48 49  4  0
 49 50  4  0
 50 51  4  0
 51 52  4  0
 52 53  4  0
 53 54  4  0
 54 55  4  0
 16 56  4  0
 56  1  4  0
 15  3  4  0
 55 17  4  0
 13  5  4  0
 54 20  4  0
 11  7  4  0
 52 22  4  0
 50 24  4  0
 48 26  4  0
 45 29  4  0
 45 33  4  0
 43 35  4  0
 41 37  4  0
  1 57  1  0
  2 58  1  0
  4 59  1  0
  6 60  1  0
  8 61  1  0
 10 62  1  0
 12 63  1  0
 14 64  1  0
 18 65  1  0
 19 66  1  0
 21 67  1  0
 23 68  1  0
 25 69  1  0
 27 70  1  0
 30 71  1  0
 31 72  1  0
 32 73  1  0
 34 74  1  0
 36 75  1  0
 38 76  1  0
 40 77  1  0
 42 78  1  0
 44 79  1  0
 46 80  1  0
 47 81  1  0
 49 82  1  0
 51 83  1  0
 53 84  1  0
 55 85  1  0
 56 86  1  0
M  END
