
     RDKit          3D

 86 98  0  0  0  0  0  0  0  0999 V2000
   10.9906    0.8606   -3.6690 C   0  0  0  0  0  0  0  0  0  0  0  0
   11.3191    0.3746   -2.4027 C   0  0  0  0  0  0  0  0  0  0  0  0
   10.3531    0.3086   -1.3838 C   0  0  0  0  0  0  0  0  0  0  0  0
   10.6682   -0.1790   -0.1061 C   0  0  0  0  0  0  0  0  0  0  0  0
    9.7166   -0.2516    0.9210 C   0  0  0  0  0  0  0  0  0  0  0  0
   10.1460   -0.7618    2.1696 C   0  0  0  0  0  0  0  0  0  0  0  0
    9.1346   -0.7968    3.1255 C   0  0  0  0  0  0  0  0  0  0  0  0
    9.3457   -1.2589    4.4011 C   0  0  0  0  0  0  0  0  0  0  0  0
    7.9074   -1.1757    5.3368 S   0  0  0  0  0  0  0  0  0  0  0  0
    7.0089   -0.5196    4.0253 C   0  0  0  0  0  0  0  0  0  0  0  0
    7.7864   -0.3658    2.8989 C   0  0  0  0  0  0  0  0  0  0  0  0
    7.3281    0.1476    1.6697 C   0  0  0  0  0  0  0  0  0  0  0  0
    5.9435    0.5793    1.4794 C   0  0  0  0  0  0  0  0  0  0  0  0
    5.5611    1.8965    1.7591 C   0  0  0  0  0  0  0  0  0  0  0  0
    4.2392    2.3083    1.5746 C   0  0  0  0  0  0  0  0  0  0  0  0
    3.2679    1.4117    1.1042 C   0  0  0  0  0  0  0  0  0  0  0  0
    1.9351    1.8110    0.9124 C   0  0  0  0  0  0  0  0  0  0  0  0
    0.9628    0.9141    0.4389 C   0  0  0  0  0  0  0  0  0  0  0  0
   -0.3704    1.3130    0.2458 C   0  0  0  0  0  0  0  0  0  0  0  0
   -1.3430    0.4166   -0.2280 C   0  0  0  0  0  0  0  0  0  0  0  0
   -2.6761    0.8165   -0.4200 C   0  0  0  0  0  0  0  0  0  0  0  0
   -3.6496   -0.0797   -0.8913 C   0  0  0  0  0  0  0  0  0  0  0  0
   -4.9842    0.3196   -1.0791 C   0  0  0  0  0  0  0  0  0  0  0  0
   -5.9573   -0.5784   -1.5447 C   0  0  0  0  0  0  0  0  0  0  0  0
   -7.3454   -0.1506   -1.7178 C   0  0  0  0  0  0  0  0  0  0  0  0
   -8.3570   -0.1921   -0.6948 C   0  0  0  0  0  0  0  0  0  0  0  0
   -8.0524   -0.6714    0.5973 C   0  0  0  0  0  0  0  0  0  0  0  0
   -9.0016   -0.7328    1.6319 C   0  0  0  0  0  0  0  0  0  0  0  0
   -8.6629   -1.2151    2.9075 C   0  0  0  0  0  0  0  0  0  0  0  0
   -9.6145   -1.2719    3.9266 C   0  0  0  0  0  0  0  0  0  0  0  0
  -10.9163   -0.8473    3.6833 C   0  0  0  0  0  0  0  0  0  0  0  0
  -11.2665   -0.3657    2.4211 C   0  0  0  0  0  0  0  0  0  0  0  0
  -10.3183   -0.3028    1.3859 C   0  0  0  0  0  0  0  0  0  0  0  0
  -10.6556    0.1792    0.1117 C   0  0  0  0  0  0  0  0  0  0  0  0
   -9.7219    0.2483   -0.9317 C   0  0  0  0  0  0  0  0  0  0  0  0
  -10.1728    0.7517   -2.1755 C   0  0  0  0  0  0  0  0  0  0  0  0
   -9.1777    0.7830   -3.1485 C   0  0  0  0  0  0  0  0  0  0  0  0
   -9.4110    1.2378   -4.4229 C   0  0  0  0  0  0  0  0  0  0  0  0
   -7.9882    1.1514   -5.3818 S   0  0  0  0  0  0  0  0  0  0  0  0
   -7.0667    0.5043   -4.0819 C   0  0  0  0  0  0  0  0  0  0  0  0
   -7.8249    0.3553   -2.9420 C   0  0  0  0  0  0  0  0  0  0  0  0
   -5.5750   -1.8951   -1.8268 C   0  0  0  0  0  0  0  0  0  0  0  0
   -4.2523   -2.3061   -1.6468 C   0  0  0  0  0  0  0  0  0  0  0  0
   -3.2798   -1.4095   -1.1789 C   0  0  0  0  0  0  0  0  0  0  0  0
   -1.9466   -1.8086   -0.9884 C   0  0  0  0  0  0  0  0  0  0  0  0
   -0.9736   -0.9117   -0.5158 C   0  0  0  0  0  0  0  0  0  0  0  0
    0.3599   -1.3105   -0.3228 C   0  0  0  0  0  0  0  0  0  0  0  0
    1.3324   -0.4142    0.1513 C   0  0  0  0  0  0  0  0  0  0  0  0
    2.6654   -0.8143    0.3445 C   0  0  0  0  0  0  0  0  0  0  0  0
    3.6382    0.0819    0.8171 C   0  0  0  0  0  0  0  0  0  0  0  0
    4.9721   -0.3179    1.0089 C   0  0  0  0  0  0  0  0  0  0  0  0
    8.3563    0.1918    0.6634 C   0  0  0  0  0  0  0  0  0  0  0  0
    8.0739    0.6762   -0.6317 C   0  0  0  0  0  0  0  0  0  0  0  0
    9.0408    0.7404   -1.6501 C   0  0  0  0  0  0  0  0  0  0  0  0
    8.7243    1.2268   -2.9297 C   0  0  0  0  0  0  0  0  0  0  0  0
    9.6931    1.2864   -3.9325 C   0  0  0  0  0  0  0  0  0  0  0  0
   11.7478    0.9053   -4.4475 H   0  0  0  0  0  0  0  0  0  0  0  0
   12.3389    0.0456   -2.2159 H   0  0  0  0  0  0  0  0  0  0  0  0
   11.6883   -0.5105    0.0859 H   0  0  0  0  0  0  0  0  0  0  0  0
   11.1605   -1.0913    2.3574 H   0  0  0  0  0  0  0  0  0  0  0  0
   10.2550   -1.6413    4.8438 H   0  0  0  0  0  0  0  0  0  0  0  0
    5.9616   -0.2880    4.1663 H   0  0  0  0  0  0  0  0  0  0  0  0
    6.2958    2.6122    2.1234 H   0  0  0  0  0  0  0  0  0  0  0  0
    3.9744    3.3387    1.8015 H   0  0  0  0  0  0  0  0  0  0  0  0
    1.6509    2.8380    1.1347 H   0  0  0  0  0  0  0  0  0  0  0  0
   -0.6573    2.3395    0.4680 H   0  0  0  0  0  0  0  0  0  0  0  0
   -2.9623    1.8430   -0.1968 H   0  0  0  0  0  0  0  0  0  0  0  0
   -5.2775    1.3447   -0.8560 H   0  0  0  0  0  0  0  0  0  0  0  0
   -7.0413   -1.0126    0.8176 H   0  0  0  0  0  0  0  0  0  0  0  0
   -7.6496   -1.5518    3.1164 H   0  0  0  0  0  0  0  0  0  0  0  0
   -9.3376   -1.6475    4.9081 H   0  0  0  0  0  0  0  0  0  0  0  0
  -11.6602   -0.8903    4.4744 H   0  0  0  0  0  0  0  0  0  0  0  0
  -12.2896   -0.0384    2.2503 H   0  0  0  0  0  0  0  0  0  0  0  0
  -11.6791    0.5087   -0.0644 H   0  0  0  0  0  0  0  0  0  0  0  0
  -11.1908    1.0788   -2.3479 H   0  0  0  0  0  0  0  0  0  0  0  0
  -10.3282    1.6165   -4.8528 H   0  0  0  0  0  0  0  0  0  0  0  0
   -6.0217    0.2736   -4.2393 H   0  0  0  0  0  0  0  0  0  0  0  0
   -6.3112   -2.6118   -2.1862 H   0  0  0  0  0  0  0  0  0  0  0  0
   -3.9888   -3.3370   -1.8728 H   0  0  0  0  0  0  0  0  0  0  0  0
   -1.6622   -2.8357   -1.2104 H   0  0  0  0  0  0  0  0  0  0  0  0
    0.6457   -2.3372   -0.5451 H   0  0  0  0  0  0  0  0  0  0  0  0
    2.9509   -1.8413    0.1229 H   0  0  0  0  0  0  0  0  0  0  0  0
    5.2655   -1.3436    0.7886 H   0  0  0  0  0  0  0  0  0  0  0  0
    7.0665    1.0185   -0.8675 H   0  0  0  0  0  0  0  0  0  0  0  0
    7.7143    1.5636   -3.1547 H   0  0  0  0  0  0  0  0  0  0  0  0
    9.4321    1.6645   -4.9173 H   0  0  0  0  0  0  0  0  0  0  0  0
  1  2  4  0
  2  3  4  0
  3  4  4  0
  4  5  4  0
  5  6  4  0
  6  7  4  0
  7  8  4  0
  8  9  4  0
  9 10  4  0
 10 11  4  0
 11 12  4  0
 12 13  1  0
 13 14  4  0
 14 15  4  0
 15 16  4  0
 16 17  4  0
 17 18  4  0
 18 19  4  0
 19 20  4  0
 20 21  4  0
 21 22  4  0
 22 23  4  0
 23 24  4  0
 24 25  1  0
 25 26  4  0
 26 27  4  0
 27 28  4  0
 28 29  4  0
 29 30  4  0
 30 31  4  0
 31 32  4  0
 32 33  4  0
 33 34  4  0
 34 35  4  0
 35 36  4  0
 36 37  4  0
 37 38  4  0
 38 39  4  0
 39 40  4  0
 40 41  4  0
 24 42  4  0
 42 43  4  0
 43 44  4  0
 44 45  4  0
 45 46  4  0
 46 47  4  0
 47 48  4  0
 48 49  4  0
 49 50  4  0
 50 51  4  0
 12 52  4  0
 52 53  4  0
 53 54  4  0
 54 55  4  0
 55 56  4  0
 56  1  4  0
 54  3  4  0
 52  5  4  0
 11  7  4  0
 51 13  4  0
 50 16  4  0
 48 18  4  0
 46 20  4  0
 44 22  4  0
 41 25  4  0
 35 26  4  0
 41 37  4  0
 33 28  4  0
  1 57  1  0
  2 58  1  0
  4 59  1  0
  6 60  1  0
  8 61  1  0
 10 62  1  0
 14 63  1  0
 15 64  1  0
 17 65  1  0
 19 66  1  0
 21 67  1  0
 23 68  1  0
 27 69  1  0
 29 70  1  0
 30 71  1  0
 31 72  1  0
 32 73  1  0
 34 74  1  0
 36 75  1  0
 38 76  1  0
 40 77  1  0
 42 78  1  0
 43 79  1  0
 45 80  1  0
 47 81  1  0
 49 82  1  0
 51 83  1  0
 53 84  1  0
 55 85  1  0
 56 86  1  0
M  END
