
     RDKit          3D

 86 98  0  0  0  0  0  0  0  0999 V2000
    9.4596    3.1169   -3.0924 C   0  0  0  0  0  0  0  0  0  0  0  0
   10.1470    2.3832   -2.1284 C   0  0  0  0  0  0  0  0  0  0  0  0
    9.5064    1.3754   -1.3855 C   0  0  0  0  0  0  0  0  0  0  0  0
   10.2278    0.6582   -0.4237 C   0  0  0  0  0  0  0  0  0  0  0  0
    9.6499   -0.3517    0.3478 C   0  0  0  0  0  0  0  0  0  0  0  0
   10.4927   -1.0003    1.2892 C   0  0  0  0  0  0  0  0  0  0  0  0
    9.8377   -1.9896    2.0159 C   0  0  0  0  0  0  0  0  0  0  0  0
   10.4527   -2.7472    2.9812 C   0  0  0  0  0  0  0  0  0  0  0  0
    9.3515   -3.8723    3.6794 S   0  0  0  0  0  0  0  0  0  0  0  0
    8.0556   -3.3353    2.6808 C   0  0  0  0  0  0  0  0  0  0  0  0
    8.4639   -2.3272    1.8434 C   0  0  0  0  0  0  0  0  0  0  0  0
    7.6178   -1.7059    0.9263 C   0  0  0  0  0  0  0  0  0  0  0  0
    8.2453   -0.6776    0.1506 C   0  0  0  0  0  0  0  0  0  0  0  0
    7.5118    0.0551   -0.8345 C   0  0  0  0  0  0  0  0  0  0  0  0
    6.0801   -0.2467   -1.0665 C   0  0  0  0  0  0  0  0  0  0  0  0
    5.6958   -1.2133   -2.0047 C   0  0  0  0  0  0  0  0  0  0  0  0
    4.3452   -1.4967   -2.2202 C   0  0  0  0  0  0  0  0  0  0  0  0
    3.3468   -0.8194   -1.5038 C   0  0  0  0  0  0  0  0  0  0  0  0
    1.9845   -1.0928   -1.7092 C   0  0  0  0  0  0  0  0  0  0  0  0
    0.9850   -0.4145   -0.9914 C   0  0  0  0  0  0  0  0  0  0  0  0
   -0.3777   -0.6880   -1.1960 C   0  0  0  0  0  0  0  0  0  0  0  0
   -1.3778   -0.0105   -0.4783 C   0  0  0  0  0  0  0  0  0  0  0  0
   -2.7403   -0.2847   -0.6839 C   0  0  0  0  0  0  0  0  0  0  0  0
   -3.7402    0.3928    0.0329 C   0  0  0  0  0  0  0  0  0  0  0  0
   -5.1029    0.1192   -0.1747 C   0  0  0  0  0  0  0  0  0  0  0  0
   -6.1018    0.7983    0.5420 C   0  0  0  0  0  0  0  0  0  0  0  0
   -7.5343    0.5010    0.3080 C   0  0  0  0  0  0  0  0  0  0  0  0
   -8.2454    1.2385   -0.6954 C   0  0  0  0  0  0  0  0  0  0  0  0
   -7.6569    2.2507   -1.4967 C   0  0  0  0  0  0  0  0  0  0  0  0
   -8.3815    2.9488   -2.4656 C   0  0  0  0  0  0  0  0  0  0  0  0
   -9.7216    2.6571   -2.6652 C   0  0  0  0  0  0  0  0  0  0  0  0
  -10.3310    1.6689   -1.8957 C   0  0  0  0  0  0  0  0  0  0  0  0
   -9.6114    0.9592   -0.9175 C   0  0  0  0  0  0  0  0  0  0  0  0
  -10.2562   -0.0279   -0.1628 C   0  0  0  0  0  0  0  0  0  0  0  0
   -9.5984   -0.7681    0.8212 C   0  0  0  0  0  0  0  0  0  0  0  0
  -10.3689   -1.7400    1.5129 C   0  0  0  0  0  0  0  0  0  0  0  0
   -9.6378   -2.4317    2.4736 C   0  0  0  0  0  0  0  0  0  0  0  0
  -10.1753   -3.4169    3.2637 C   0  0  0  0  0  0  0  0  0  0  0  0
   -8.9946   -4.0603    4.3396 S   0  0  0  0  0  0  0  0  0  0  0  0
   -7.7687   -3.0114    3.7378 C   0  0  0  0  0  0  0  0  0  0  0  0
   -8.2583   -2.1990    2.7455 C   0  0  0  0  0  0  0  0  0  0  0  0
   -7.4820   -1.2510    2.0807 C   0  0  0  0  0  0  0  0  0  0  0  0
   -8.1895   -0.5096    1.0792 C   0  0  0  0  0  0  0  0  0  0  0  0
   -5.7168    1.7648    1.4800 C   0  0  0  0  0  0  0  0  0  0  0  0
   -4.3661    2.0463    1.6969 C   0  0  0  0  0  0  0  0  0  0  0  0
   -3.3680    1.3689    0.9801 C   0  0  0  0  0  0  0  0  0  0  0  0
   -2.0058    1.6428    1.1852 C   0  0  0  0  0  0  0  0  0  0  0  0
   -1.0060    0.9650    0.4672 C   0  0  0  0  0  0  0  0  0  0  0  0
    0.3568    1.2389    0.6714 C   0  0  0  0  0  0  0  0  0  0  0  0
    1.3568    0.5611   -0.0461 C   0  0  0  0  0  0  0  0  0  0  0  0
    2.7193    0.8356    0.1592 C   0  0  0  0  0  0  0  0  0  0  0  0
    3.7188    0.1573   -0.5571 C   0  0  0  0  0  0  0  0  0  0  0  0
    5.0810    0.4318   -0.3497 C   0  0  0  0  0  0  0  0  0  0  0  0
    8.1422    1.0863   -1.6059 C   0  0  0  0  0  0  0  0  0  0  0  0
    7.4733    1.8519   -2.5956 C   0  0  0  0  0  0  0  0  0  0  0  0
    8.1199    2.8508   -3.3271 C   0  0  0  0  0  0  0  0  0  0  0  0
    9.9706    3.8924   -3.6561 H   0  0  0  0  0  0  0  0  0  0  0  0
   11.1986    2.6074   -1.9594 H   0  0  0  0  0  0  0  0  0  0  0  0
   11.2799    0.9025   -0.2753 H   0  0  0  0  0  0  0  0  0  0  0  0
   11.5368   -0.7482    1.4255 H   0  0  0  0  0  0  0  0  0  0  0  0
   11.4778   -2.7138    3.3228 H   0  0  0  0  0  0  0  0  0  0  0  0
    7.0791   -3.7913    2.7706 H   0  0  0  0  0  0  0  0  0  0  0  0
    6.5769   -1.9836    0.8179 H   0  0  0  0  0  0  0  0  0  0  0  0
    6.4520   -1.7512   -2.5731 H   0  0  0  0  0  0  0  0  0  0  0  0
    4.0796   -2.2535   -2.9550 H   0  0  0  0  0  0  0  0  0  0  0  0
    1.6977   -1.8464   -2.4405 H   0  0  0  0  0  0  0  0  0  0  0  0
   -0.6661   -1.4412   -1.9272 H   0  0  0  0  0  0  0  0  0  0  0  0
   -3.0289   -1.0382   -1.4150 H   0  0  0  0  0  0  0  0  0  0  0  0
   -5.3985   -0.6323   -0.9056 H   0  0  0  0  0  0  0  0  0  0  0  0
   -6.6073    2.5120   -1.3734 H   0  0  0  0  0  0  0  0  0  0  0  0
   -7.8935    3.7171   -3.0593 H   0  0  0  0  0  0  0  0  0  0  0  0
  -10.2933    3.1949   -3.4166 H   0  0  0  0  0  0  0  0  0  0  0  0
  -11.3840    1.4547   -2.0676 H   0  0  0  0  0  0  0  0  0  0  0  0
  -11.3117   -0.2218   -0.3554 H   0  0  0  0  0  0  0  0  0  0  0  0
  -11.4169   -1.9219    1.3112 H   0  0  0  0  0  0  0  0  0  0  0  0
  -11.1856   -3.8014    3.2796 H   0  0  0  0  0  0  0  0  0  0  0  0
   -6.7695   -3.0568    4.1486 H   0  0  0  0  0  0  0  0  0  0  0  0
   -6.4349   -1.0964    2.3086 H   0  0  0  0  0  0  0  0  0  0  0  0
   -6.4728    2.3049    2.0467 H   0  0  0  0  0  0  0  0  0  0  0  0
   -4.1002    2.8025    2.4322 H   0  0  0  0  0  0  0  0  0  0  0  0
   -1.7193    2.3973    1.9157 H   0  0  0  0  0  0  0  0  0  0  0  0
    0.6459    1.9929    1.4018 H   0  0  0  0  0  0  0  0  0  0  0  0
    3.0084    1.5901    0.8890 H   0  0  0  0  0  0  0  0  0  0  0  0
    5.3766    1.1848    0.3796 H   0  0  0  0  0  0  0  0  0  0  0  0
    6.4209    1.6763   -2.8119 H   0  0  0  0  0  0  0  0  0  0  0  0
    7.5717    3.4158   -4.0763 H   0  0  0  0  0  0  0  0  0  0  0  0
  1  2  4  0
  2  3  4  0
  3  4  4  0
  4  5  4  0
  5  6  4  0
  6  7  4  0
  7  8  4  0
  8  9  4  0
  9 10  4  0
 10 11  4  0
 11 12  4  0
 12 13  4  0
 13 14  4  0
 14 15  1  0
 15 16  4  0
 16 17  4  0
 17 18  4  0
 18 19  4  0
 19 20  4  0
 20 21  4  0
 21 22  4  0
 22 23  4  0
 23 24  4  0
 24 25  4  0
 25 26  4  0
 26 27  1  0
 27 28  4  0
 28 29  4  0
 29 30  4  0
 30 31  4  0
 31 32  4  0
 32 33  4  0
 33 34  4  0
 34 35  4  0
 35 36  4  0
 36 37  4  0
 37 38  4  0
 38 39  4  0
 39 40  4  0
 40 41  4  0
 41 42  4  0
 42 43  4  0
 26 44  4  0
 44 45  4  0
 45 46  4  0
 46 47  4  0
 47 48  4  0
 48 49  4  0
 49 50  4  0
 50 51  4  0
 51 52  4  0
 52 53  4  0
 14 54  4  0
 54 55  4  0
 55 56  4  0
 56  1  4  0
 54  3  4  0
 13  5  4  0
 53 15  4  0
 11  7  4  0
 52 18  4  0
 50 20  4  0
 48 22  4  0
 46 24  4  0
 43 27  4  0
 33 28  4  0
 43 35  4  0
 41 37  4  0
  1 57  1  0
  2 58  1  0
  4 59  1  0
  6 60  1  0
  8 61  1  0
 10 62  1  0
 12 63  1  0
 16 64  1  0
 17 65  1  0
 19 66  1  0
 21 67  1  0
 23 68  1  0
 25 69  1  0
 29 70  1  0
 30 71  1  0
 31 72  1  0
 32 73  1  0
 34 74  1  0
 36 75  1  0
 38 76  1  0
 40 77  1  0
 42 78  1  0
 44 79  1  0
 45 80  1  0
 47 81  1  0
 49 82  1  0
 51 83  1  0
 53 84  1  0
 55 85  1  0
 56 86  1  0
M  END
