
     RDKit          3D

 84 96  0  0  0  0  0  0  0  0999 V2000
  -14.3937    0.3423   -0.2648 C   0  0  0  0  0  0  0  0  0  0  0  0
  -13.5588    1.1212   -1.0653 C   0  0  0  0  0  0  0  0  0  0  0  0
  -12.1797    0.8701   -1.1159 C   0  0  0  0  0  0  0  0  0  0  0  0
  -11.6393   -0.1850   -0.3449 C   0  0  0  0  0  0  0  0  0  0  0  0
  -12.4868   -0.9743    0.4665 C   0  0  0  0  0  0  0  0  0  0  0  0
  -13.8617   -0.6983    0.4960 C   0  0  0  0  0  0  0  0  0  0  0  0
  -11.9335   -2.0154    1.2237 C   0  0  0  0  0  0  0  0  0  0  0  0
  -10.5618   -2.2776    1.1823 C   0  0  0  0  0  0  0  0  0  0  0  0
   -9.7075   -1.5058    0.3828 C   0  0  0  0  0  0  0  0  0  0  0  0
   -8.3268   -1.7575    0.3305 C   0  0  0  0  0  0  0  0  0  0  0  0
   -7.4688   -0.9840   -0.4672 C   0  0  0  0  0  0  0  0  0  0  0  0
   -6.0248   -1.2600   -0.5109 C   0  0  0  0  0  0  0  0  0  0  0  0
   -5.5427   -2.5212   -0.8849 C   0  0  0  0  0  0  0  0  0  0  0  0
   -4.1699   -2.7806   -0.9318 C   0  0  0  0  0  0  0  0  0  0  0  0
   -3.2400   -1.7836   -0.6034 C   0  0  0  0  0  0  0  0  0  0  0  0
   -1.8573   -2.0272   -0.6467 C   0  0  0  0  0  0  0  0  0  0  0  0
   -0.9267   -1.0275   -0.3167 C   0  0  0  0  0  0  0  0  0  0  0  0
    0.4567   -1.2697   -0.3606 C   0  0  0  0  0  0  0  0  0  0  0  0
    1.3878   -0.2703   -0.0303 C   0  0  0  0  0  0  0  0  0  0  0  0
    2.7714   -0.5129   -0.0746 C   0  0  0  0  0  0  0  0  0  0  0  0
    3.7025    0.4864    0.2548 C   0  0  0  0  0  0  0  0  0  0  0  0
    5.0878    0.2442    0.2098 C   0  0  0  0  0  0  0  0  0  0  0  0
    6.0224    1.2422    0.5332 C   0  0  0  0  0  0  0  0  0  0  0  0
    7.4670    0.9724    0.4776 C   0  0  0  0  0  0  0  0  0  0  0  0
    8.3092    1.7328   -0.3491 C   0  0  0  0  0  0  0  0  0  0  0  0
    9.6908    1.4889   -0.4140 C   0  0  0  0  0  0  0  0  0  0  0  0
   10.2488    0.4567    0.3716 C   0  0  0  0  0  0  0  0  0  0  0  0
    9.4176   -0.3184    1.2098 C   0  0  0  0  0  0  0  0  0  0  0  0
    8.0393   -0.0508    1.2500 C   0  0  0  0  0  0  0  0  0  0  0  0
    9.9880   -1.3374    1.9853 C   0  0  0  0  0  0  0  0  0  0  0  0
   11.3611   -1.5915    1.9349 C   0  0  0  0  0  0  0  0  0  0  0  0
   12.1999   -0.8332    1.1074 C   0  0  0  0  0  0  0  0  0  0  0  0
   13.5801   -1.0757    1.0448 C   0  0  0  0  0  0  0  0  0  0  0  0
   14.3990   -0.3105    0.2150 C   0  0  0  0  0  0  0  0  0  0  0  0
   13.8494    0.7078   -0.5631 C   0  0  0  0  0  0  0  0  0  0  0  0
   12.4728    0.9749   -0.5220 C   0  0  0  0  0  0  0  0  0  0  0  0
   11.6416    0.1992    0.3189 C   0  0  0  0  0  0  0  0  0  0  0  0
   11.9022    1.9938   -1.2962 C   0  0  0  0  0  0  0  0  0  0  0  0
   10.5291    2.2473   -1.2429 C   0  0  0  0  0  0  0  0  0  0  0  0
    5.5394    2.5025    0.9090 C   0  0  0  0  0  0  0  0  0  0  0  0
    4.1662    2.7591    0.9618 C   0  0  0  0  0  0  0  0  0  0  0  0
    3.2370    1.7604    0.6367 C   0  0  0  0  0  0  0  0  0  0  0  0
    1.8540    2.0029    0.6826 C   0  0  0  0  0  0  0  0  0  0  0  0
    0.9237    1.0028    0.3533 C   0  0  0  0  0  0  0  0  0  0  0  0
   -0.4597    1.2451    0.3974 C   0  0  0  0  0  0  0  0  0  0  0  0
   -1.3904    0.2457    0.0667 C   0  0  0  0  0  0  0  0  0  0  0  0
   -2.7735    0.4892    0.1097 C   0  0  0  0  0  0  0  0  0  0  0  0
   -3.7046   -0.5092   -0.2220 C   0  0  0  0  0  0  0  0  0  0  0  0
   -5.0892   -0.2648   -0.1814 C   0  0  0  0  0  0  0  0  0  0  0  0
   -8.0245    0.0604   -1.2232 C   0  0  0  0  0  0  0  0  0  0  0  0
   -9.4009    0.3370   -1.1944 C   0  0  0  0  0  0  0  0  0  0  0  0
  -10.2481   -0.4515   -0.3855 C   0  0  0  0  0  0  0  0  0  0  0  0
   -9.9531    1.3783   -1.9529 C   0  0  0  0  0  0  0  0  0  0  0  0
  -11.3247    1.6416   -1.9141 C   0  0  0  0  0  0  0  0  0  0  0  0
  -15.4608    0.5465   -0.2339 H   0  0  0  0  0  0  0  0  0  0  0  0
  -13.9937    1.9279   -1.6510 H   0  0  0  0  0  0  0  0  0  0  0  0
  -14.5300   -1.2938    1.1138 H   0  0  0  0  0  0  0  0  0  0  0  0
  -12.5673   -2.6342    1.8550 H   0  0  0  0  0  0  0  0  0  0  0  0
  -10.1658   -3.0935    1.7832 H   0  0  0  0  0  0  0  0  0  0  0  0
   -7.9077   -2.5640    0.9306 H   0  0  0  0  0  0  0  0  0  0  0  0
   -6.2375   -3.3135   -1.1572 H   0  0  0  0  0  0  0  0  0  0  0  0
   -3.8341   -3.7709   -1.2314 H   0  0  0  0  0  0  0  0  0  0  0  0
   -1.5000   -3.0119   -0.9426 H   0  0  0  0  0  0  0  0  0  0  0  0
    0.8158   -2.2535   -0.6576 H   0  0  0  0  0  0  0  0  0  0  0  0
    3.1307   -1.4967   -0.3717 H   0  0  0  0  0  0  0  0  0  0  0  0
    5.4482   -0.7375   -0.0950 H   0  0  0  0  0  0  0  0  0  0  0  0
    7.8762    2.5225   -0.9615 H   0  0  0  0  0  0  0  0  0  0  0  0
    7.3989   -0.6412    1.9038 H   0  0  0  0  0  0  0  0  0  0  0  0
    9.3663   -1.9451    2.6392 H   0  0  0  0  0  0  0  0  0  0  0  0
   11.7702   -2.3896    2.5504 H   0  0  0  0  0  0  0  0  0  0  0  0
   14.0283   -1.8651    1.6439 H   0  0  0  0  0  0  0  0  0  0  0  0
   15.4671   -0.5079    0.1749 H   0  0  0  0  0  0  0  0  0  0  0  0
   14.5050    1.2932   -1.2038 H   0  0  0  0  0  0  0  0  0  0  0  0
   12.5232    2.6018   -1.9503 H   0  0  0  0  0  0  0  0  0  0  0  0
   10.1189    3.0456   -1.8576 H   0  0  0  0  0  0  0  0  0  0  0  0
    6.2343    3.2966    1.1763 H   0  0  0  0  0  0  0  0  0  0  0  0
    3.8296    3.7489    1.2620 H   0  0  0  0  0  0  0  0  0  0  0  0
    1.4964    2.9873    0.9787 H   0  0  0  0  0  0  0  0  0  0  0  0
   -0.8185    2.2291    0.6941 H   0  0  0  0  0  0  0  0  0  0  0  0
   -3.1325    1.4732    0.4065 H   0  0  0  0  0  0  0  0  0  0  0  0
   -5.4487    0.7174    0.1228 H   0  0  0  0  0  0  0  0  0  0  0  0
   -7.3718    0.6610   -1.8553 H   0  0  0  0  0  0  0  0  0  0  0  0
   -9.3180    1.9964   -2.5838 H   0  0  0  0  0  0  0  0  0  0  0  0
  -11.7196    2.4573   -2.5155 H   0  0  0  0  0  0  0  0  0  0  0  0
  1  2  4  0
  2  3  4  0
  3  4  4  0
  4  5  4  0
  5  6  4  0
  5  7  4  0
  7  8  4  0
  8  9  4  0
  9 10  4  0
 10 11  4  0
 11 12  1  0
 12 13  4  0
 13 14  4  0
 14 15  4  0
 15 16  4  0
 16 17  4  0
 17 18  4  0
 18 19  4  0
 19 20  4  0
 20 21  4  0
 21 22  4  0
 22 23  4  0
 23 24  1  0
 24 25  4  0
 25 26  4  0
 26 27  4  0
 27 28  4  0
 28 29  4  0
 28 30  4  0
 30 31  4  0
 31 32  4  0
 32 33  4  0
 33 34  4  0
 34 35  4  0
 35 36  4  0
 36 37  4  0
 36 38  4  0
 38 39  4  0
 23 40  4  0
 40 41  4  0
 41 42  4  0
 42 43  4  0
 43 44  4  0
 44 45  4  0
 45 46  4  0
 46 47  4  0
 47 48  4  0
 48 49  4  0
 11 50  4  0
 50 51  4  0
 51 52  4  0
 51 53  4  0
 53 54  4  0
  6  1  4  0
 52  9  4  0
 54  3  4  0
 52  4  4  0
 49 12  4  0
 48 15  4  0
 46 17  4  0
 44 19  4  0
 42 21  4  0
 29 24  4  0
 37 32  4  0
 39 26  4  0
 37 27  4  0
  1 55  1  0
  2 56  1  0
  6 57  1  0
  7 58  1  0
  8 59  1  0
 10 60  1  0
 13 61  1  0
 14 62  1  0
 16 63  1  0
 18 64  1  0
 20 65  1  0
 22 66  1  0
 25 67  1  0
 29 68  1  0
 30 69  1  0
 31 70  1  0
 33 71  1  0
 34 72  1  0
 35 73  1  0
 38 74  1  0
 39 75  1  0
 40 76  1  0
 41 77  1  0
 43 78  1  0
 45 79  1  0
 47 80  1  0
 49 81  1  0
 50 82  1  0
 53 83  1  0
 54 84  1  0
M  END
