
     RDKit          3D

 84 96  0  0  0  0  0  0  0  0999 V2000
   11.4110    2.9157    0.6330 C   0  0  0  0  0  0  0  0  0  0  0  0
   12.1814    1.8659    0.1375 C   0  0  0  0  0  0  0  0  0  0  0  0
   11.6122    0.6025   -0.0787 C   0  0  0  0  0  0  0  0  0  0  0  0
   10.2416    0.3946    0.2100 C   0  0  0  0  0  0  0  0  0  0  0  0
    9.4661    1.4612    0.7117 C   0  0  0  0  0  0  0  0  0  0  0  0
   10.0620    2.7146    0.9183 C   0  0  0  0  0  0  0  0  0  0  0  0
    8.1125    1.2471    0.9942 C   0  0  0  0  0  0  0  0  0  0  0  0
    7.5036   -0.0051    0.7907 C   0  0  0  0  0  0  0  0  0  0  0  0
    6.0741   -0.1380    1.1138 C   0  0  0  0  0  0  0  0  0  0  0  0
    5.6634   -0.5084    2.3997 C   0  0  0  0  0  0  0  0  0  0  0  0
    4.3057   -0.6314    2.7052 C   0  0  0  0  0  0  0  0  0  0  0  0
    3.3260   -0.3845    1.7314 C   0  0  0  0  0  0  0  0  0  0  0  0
    1.9570   -0.5043    2.0225 C   0  0  0  0  0  0  0  0  0  0  0  0
    0.9759   -0.2563    1.0475 C   0  0  0  0  0  0  0  0  0  0  0  0
   -0.3935   -0.3754    1.3386 C   0  0  0  0  0  0  0  0  0  0  0  0
   -1.3753   -0.1266    0.3646 C   0  0  0  0  0  0  0  0  0  0  0  0
   -2.7446   -0.2453    0.6567 C   0  0  0  0  0  0  0  0  0  0  0  0
   -3.7262    0.0037   -0.3168 C   0  0  0  0  0  0  0  0  0  0  0  0
   -5.0958   -0.1150   -0.0235 C   0  0  0  0  0  0  0  0  0  0  0  0
   -6.0762    0.1375   -0.9958 C   0  0  0  0  0  0  0  0  0  0  0  0
   -7.5057    0.0067   -0.6713 C   0  0  0  0  0  0  0  0  0  0  0  0
   -8.1224   -1.2379   -0.8971 C   0  0  0  0  0  0  0  0  0  0  0  0
   -9.4763   -1.4499   -0.6145 C   0  0  0  0  0  0  0  0  0  0  0  0
  -10.0801   -2.6956   -0.8434 C   0  0  0  0  0  0  0  0  0  0  0  0
  -11.4293   -2.8946   -0.5576 C   0  0  0  0  0  0  0  0  0  0  0  0
  -12.1922   -1.8503   -0.0391 C   0  0  0  0  0  0  0  0  0  0  0  0
  -11.6149   -0.5946    0.1996 C   0  0  0  0  0  0  0  0  0  0  0  0
  -10.2442   -0.3888   -0.0897 C   0  0  0  0  0  0  0  0  0  0  0  0
   -9.6442    0.8749    0.1458 C   0  0  0  0  0  0  0  0  0  0  0  0
  -10.4340    1.9280    0.6734 C   0  0  0  0  0  0  0  0  0  0  0  0
   -9.8535    3.1797    0.9097 C   0  0  0  0  0  0  0  0  0  0  0  0
   -8.5090    3.3971    0.6310 C   0  0  0  0  0  0  0  0  0  0  0  0
   -7.7298    2.3635    0.1124 C   0  0  0  0  0  0  0  0  0  0  0  0
   -8.2701    1.0827   -0.1432 C   0  0  0  0  0  0  0  0  0  0  0  0
  -11.7884    1.7064    0.9536 C   0  0  0  0  0  0  0  0  0  0  0  0
  -12.3720    0.4608    0.7199 C   0  0  0  0  0  0  0  0  0  0  0  0
   -5.6664    0.5089   -2.2816 C   0  0  0  0  0  0  0  0  0  0  0  0
   -4.3087    0.6305   -2.5883 C   0  0  0  0  0  0  0  0  0  0  0  0
   -3.3282    0.3813   -1.6157 C   0  0  0  0  0  0  0  0  0  0  0  0
   -1.9591    0.4998   -1.9074 C   0  0  0  0  0  0  0  0  0  0  0  0
   -0.9778    0.2503   -0.9329 C   0  0  0  0  0  0  0  0  0  0  0  0
    0.3918    0.3690   -1.2241 C   0  0  0  0  0  0  0  0  0  0  0  0
    1.3736    0.1205   -0.2500 C   0  0  0  0  0  0  0  0  0  0  0  0
    2.7430    0.2399   -0.5417 C   0  0  0  0  0  0  0  0  0  0  0  0
    3.7244   -0.0077    0.4324 C   0  0  0  0  0  0  0  0  0  0  0  0
    5.0943    0.1121    0.1402 C   0  0  0  0  0  0  0  0  0  0  0  0
    8.2757   -1.0867    0.2855 C   0  0  0  0  0  0  0  0  0  0  0  0
    7.7433   -2.3750    0.0522 C   0  0  0  0  0  0  0  0  0  0  0  0
    8.5298   -3.4138   -0.4444 C   0  0  0  0  0  0  0  0  0  0  0  0
    9.8740   -3.1943   -0.7226 C   0  0  0  0  0  0  0  0  0  0  0  0
   10.4469   -1.9352   -0.5080 C   0  0  0  0  0  0  0  0  0  0  0  0
    9.6496   -0.8768   -0.0031 C   0  0  0  0  0  0  0  0  0  0  0  0
   11.8011   -1.7115   -0.7878 C   0  0  0  0  0  0  0  0  0  0  0  0
   12.3770   -0.4585   -0.5760 C   0  0  0  0  0  0  0  0  0  0  0  0
   11.8619    3.8910    0.7968 H   0  0  0  0  0  0  0  0  0  0  0  0
   13.2327    2.0417   -0.0795 H   0  0  0  0  0  0  0  0  0  0  0  0
    9.4767    3.5464    1.3045 H   0  0  0  0  0  0  0  0  0  0  0  0
    7.5090    2.0676    1.3815 H   0  0  0  0  0  0  0  0  0  0  0  0
    6.4040   -0.7067    3.1722 H   0  0  0  0  0  0  0  0  0  0  0  0
    4.0200   -0.9229    3.7135 H   0  0  0  0  0  0  0  0  0  0  0  0
    1.6503   -0.7950    3.0257 H   0  0  0  0  0  0  0  0  0  0  0  0
   -0.7009   -0.6665    2.3416 H   0  0  0  0  0  0  0  0  0  0  0  0
   -3.0536   -0.5360    1.6594 H   0  0  0  0  0  0  0  0  0  0  0  0
   -5.4113   -0.4053    0.9779 H   0  0  0  0  0  0  0  0  0  0  0  0
   -7.5243   -2.0541   -1.3016 H   0  0  0  0  0  0  0  0  0  0  0  0
   -9.5008   -3.5230   -1.2477 H   0  0  0  0  0  0  0  0  0  0  0  0
  -11.8863   -3.8639   -0.7390 H   0  0  0  0  0  0  0  0  0  0  0  0
  -13.2438   -2.0243    0.1779 H   0  0  0  0  0  0  0  0  0  0  0  0
  -10.4459    3.9974    1.3139 H   0  0  0  0  0  0  0  0  0  0  0  0
   -8.0639    4.3711    0.8166 H   0  0  0  0  0  0  0  0  0  0  0  0
   -6.6813    2.5722   -0.0932 H   0  0  0  0  0  0  0  0  0  0  0  0
  -12.4056    2.5055    1.3588 H   0  0  0  0  0  0  0  0  0  0  0  0
  -13.4264    0.3237    0.9490 H   0  0  0  0  0  0  0  0  0  0  0  0
   -6.4074    0.7096   -3.0530 H   0  0  0  0  0  0  0  0  0  0  0  0
   -4.0241    0.9232   -3.5966 H   0  0  0  0  0  0  0  0  0  0  0  0
   -1.6527    0.7914   -2.9104 H   0  0  0  0  0  0  0  0  0  0  0  0
    0.6991    0.6606   -2.2269 H   0  0  0  0  0  0  0  0  0  0  0  0
    3.0518    0.5313   -1.5443 H   0  0  0  0  0  0  0  0  0  0  0  0
    5.4103    0.4016   -0.8612 H   0  0  0  0  0  0  0  0  0  0  0  0
    6.6952   -2.5856    0.2579 H   0  0  0  0  0  0  0  0  0  0  0  0
    8.0906   -4.3936   -0.6131 H   0  0  0  0  0  0  0  0  0  0  0  0
   10.4722   -4.0162   -1.1093 H   0  0  0  0  0  0  0  0  0  0  0  0
   12.4241   -2.5148   -1.1755 H   0  0  0  0  0  0  0  0  0  0  0  0
   13.4314   -0.3198   -0.8041 H   0  0  0  0  0  0  0  0  0  0  0  0
  1  2  4  0
  2  3  4  0
  3  4  4  0
  4  5  4  0
  5  6  4  0
  5  7  4  0
  7  8  4  0
  8  9  1  0
  9 10  4  0
 10 11  4  0
 11 12  4  0
 12 13  4  0
 13 14  4  0
 14 15  4  0
 15 16  4  0
 16 17  4  0
 17 18  4  0
 18 19  4  0
 19 20  4  0
 20 21  1  0
 21 22  4  0
 22 23  4  0
 23 24  4  0
 24 25  4  0
 25 26  4  0
 26 27  4  0
 27 28  4  0
 28 29  4  0
 29 30  4  0
 30 31  4  0
 31 32  4  0
 32 33  4  0
 33 34  4  0
 30 35  4  0
 35 36  4  0
 20 37  4  0
 37 38  4  0
 38 39  4  0
 39 40  4  0
 40 41  4  0
 41 42  4  0
 42 43  4  0
 43 44  4  0
 44 45  4  0
 45 46  4  0
  8 47  4  0
 47 48  4  0
 48 49  4  0
 49 50  4  0
 50 51  4  0
 51 52  4  0
 51 53  4  0
 53 54  4  0
  6  1  4  0
 46  9  4  0
 52 47  4  0
 54  3  4  0
 52  4  4  0
 45 12  4  0
 43 14  4  0
 41 16  4  0
 39 18  4  0
 34 21  4  0
 28 23  4  0
 34 29  4  0
 36 27  4  0
  1 55  1  0
  2 56  1  0
  6 57  1  0
  7 58  1  0
 10 59  1  0
 11 60  1  0
 13 61  1  0
 15 62  1  0
 17 63  1  0
 19 64  1  0
 22 65  1  0
 24 66  1  0
 25 67  1  0
 26 68  1  0
 31 69  1  0
 32 70  1  0
 33 71  1  0
 35 72  1  0
 36 73  1  0
 37 74  1  0
 38 75  1  0
 40 76  1  0
 42 77  1  0
 44 78  1  0
 46 79  1  0
 48 80  1  0
 49 81  1  0
 50 82  1  0
 53 83  1  0
 54 84  1  0
M  END
