
     RDKit          3D

116132  0  0  0  0  0  0  0  0999 V2000
   -9.4028   -4.7015   -4.7547 C   0  0  0  0  0  0  0  0  0  0  0  0
   -8.1483   -5.0189   -4.2563 C   0  0  0  0  0  0  0  0  0  0  0  0
   -7.5050   -4.1377   -3.3844 C   0  0  0  0  0  0  0  0  0  0  0  0
   -8.0936   -2.9117   -2.9832 C   0  0  0  0  0  0  0  0  0  0  0  0
   -9.3718   -2.6095   -3.5029 C   0  0  0  0  0  0  0  0  0  0  0  0
  -10.0098   -3.5048   -4.3797 C   0  0  0  0  0  0  0  0  0  0  0  0
  -10.0043   -1.4138   -3.1417 C   0  0  0  0  0  0  0  0  0  0  0  0
   -9.4068   -0.4928   -2.2720 C   0  0  0  0  0  0  0  0  0  0  0  0
  -10.0811    0.6950   -1.9362 C   0  0  0  0  0  0  0  0  0  0  0  0
   -9.5194    1.6441   -1.0691 C   0  0  0  0  0  0  0  0  0  0  0  0
  -10.1961    2.8294   -0.7331 C   0  0  0  0  0  0  0  0  0  0  0  0
   -9.6288    3.7763    0.1363 C   0  0  0  0  0  0  0  0  0  0  0  0
  -10.3055    4.9608    0.4737 C   0  0  0  0  0  0  0  0  0  0  0  0
   -9.7373    5.9068    1.3429 C   0  0  0  0  0  0  0  0  0  0  0  0
  -10.4131    7.0910    1.6809 C   0  0  0  0  0  0  0  0  0  0  0  0
   -9.8349    8.0213    2.5461 C   0  0  0  0  0  0  0  0  0  0  0  0
   -8.5747    7.7799    3.0841 C   0  0  0  0  0  0  0  0  0  0  0  0
   -7.8908    6.6078    2.7579 C   0  0  0  0  0  0  0  0  0  0  0  0
   -8.4594    5.6619    1.8887 C   0  0  0  0  0  0  0  0  0  0  0  0
   -7.7840    4.4774    1.5508 C   0  0  0  0  0  0  0  0  0  0  0  0
   -8.3536    3.5317    0.6814 C   0  0  0  0  0  0  0  0  0  0  0  0
   -7.6792    2.3464    0.3436 C   0  0  0  0  0  0  0  0  0  0  0  0
   -8.2489    1.3997   -0.5251 C   0  0  0  0  0  0  0  0  0  0  0  0
   -7.5776    0.2112   -0.8635 C   0  0  0  0  0  0  0  0  0  0  0  0
   -8.1305   -0.7611   -1.7357 C   0  0  0  0  0  0  0  0  0  0  0  0
   -7.4690   -1.9806   -2.0925 C   0  0  0  0  0  0  0  0  0  0  0  0
   -6.1325   -2.2820   -1.5350 C   0  0  0  0  0  0  0  0  0  0  0  0
   -6.0041   -2.9614   -0.3170 C   0  0  0  0  0  0  0  0  0  0  0  0
   -4.7417   -3.2446    0.2088 C   0  0  0  0  0  0  0  0  0  0  0  0
   -3.5777   -2.8557   -0.4714 C   0  0  0  0  0  0  0  0  0  0  0  0
   -2.3015   -3.1344    0.0444 C   0  0  0  0  0  0  0  0  0  0  0  0
   -1.1352   -2.7447   -0.6355 C   0  0  0  0  0  0  0  0  0  0  0  0
    0.1418   -3.0223   -0.1193 C   0  0  0  0  0  0  0  0  0  0  0  0
    1.3084   -2.6320   -0.7983 C   0  0  0  0  0  0  0  0  0  0  0  0
    2.5851   -2.9084   -0.2808 C   0  0  0  0  0  0  0  0  0  0  0  0
    3.7510   -2.5180   -0.9599 C   0  0  0  0  0  0  0  0  0  0  0  0
    5.0276   -2.7931   -0.4410 C   0  0  0  0  0  0  0  0  0  0  0  0
    6.1922   -2.4011   -1.1208 C   0  0  0  0  0  0  0  0  0  0  0  0
    7.5284   -2.6905   -0.5565 C   0  0  0  0  0  0  0  0  0  0  0  0
    8.1622   -1.7300    0.2965 C   0  0  0  0  0  0  0  0  0  0  0  0
    7.5819   -0.4859    0.6526 C   0  0  0  0  0  0  0  0  0  0  0  0
    8.2262    0.4423    1.4893 C   0  0  0  0  0  0  0  0  0  0  0  0
    7.6291    1.6694    1.8248 C   0  0  0  0  0  0  0  0  0  0  0  0
    8.2763    2.5957    2.6593 C   0  0  0  0  0  0  0  0  0  0  0  0
    7.6794    3.8229    2.9936 C   0  0  0  0  0  0  0  0  0  0  0  0
    8.3275    4.7492    3.8272 C   0  0  0  0  0  0  0  0  0  0  0  0
    7.7319    5.9766    4.1617 C   0  0  0  0  0  0  0  0  0  0  0  0
    8.3890    6.8867    4.9911 C   0  0  0  0  0  0  0  0  0  0  0  0
    9.6490    6.5814    5.4962 C   0  0  0  0  0  0  0  0  0  0  0  0
   10.2539    5.3659    5.1730 C   0  0  0  0  0  0  0  0  0  0  0  0
    9.6053    4.4397    4.3397 C   0  0  0  0  0  0  0  0  0  0  0  0
   10.2007    3.2122    4.0051 C   0  0  0  0  0  0  0  0  0  0  0  0
    9.5514    2.2866    3.1710 C   0  0  0  0  0  0  0  0  0  0  0  0
   10.1461    1.0588    2.8353 C   0  0  0  0  0  0  0  0  0  0  0  0
    9.4965    0.1341    1.9998 C   0  0  0  0  0  0  0  0  0  0  0  0
   10.0853   -1.0931    1.6608 C   0  0  0  0  0  0  0  0  0  0  0  0
    9.4379   -2.0189    0.8232 C   0  0  0  0  0  0  0  0  0  0  0  0
   10.0618   -3.2327    0.5099 C   0  0  0  0  0  0  0  0  0  0  0  0
    9.4569   -4.1836   -0.3204 C   0  0  0  0  0  0  0  0  0  0  0  0
   10.1216   -5.3888   -0.6072 C   0  0  0  0  0  0  0  0  0  0  0  0
    9.5431   -6.3516   -1.4312 C   0  0  0  0  0  0  0  0  0  0  0  0
    8.2907   -6.1207   -1.9800 C   0  0  0  0  0  0  0  0  0  0  0  0
    7.6207   -4.9270   -1.7022 C   0  0  0  0  0  0  0  0  0  0  0  0
    8.1801   -3.9268   -0.8675 C   0  0  0  0  0  0  0  0  0  0  0  0
    6.0636   -1.7239   -2.3400 C   0  0  0  0  0  0  0  0  0  0  0  0
    4.8013   -1.4437   -2.8674 C   0  0  0  0  0  0  0  0  0  0  0  0
    3.6373   -1.8343   -2.1881 C   0  0  0  0  0  0  0  0  0  0  0  0
    2.3610   -1.5582   -2.7047 C   0  0  0  0  0  0  0  0  0  0  0  0
    1.1951   -1.9484   -2.0244 C   0  0  0  0  0  0  0  0  0  0  0  0
   -0.0817   -1.6710   -2.5406 C   0  0  0  0  0  0  0  0  0  0  0  0
   -1.2484   -2.0603   -1.8612 C   0  0  0  0  0  0  0  0  0  0  0  0
   -2.5250   -1.7817   -2.3780 C   0  0  0  0  0  0  0  0  0  0  0  0
   -3.6912   -2.1706   -1.6987 C   0  0  0  0  0  0  0  0  0  0  0  0
   -4.9678   -1.8919   -2.2158 C   0  0  0  0  0  0  0  0  0  0  0  0
   -9.9101   -5.3818   -5.4330 H   0  0  0  0  0  0  0  0  0  0  0  0
   -7.6646   -5.9494   -4.5409 H   0  0  0  0  0  0  0  0  0  0  0  0
   -6.5218   -4.4245   -3.0156 H   0  0  0  0  0  0  0  0  0  0  0  0
  -10.9948   -3.2742   -4.7808 H   0  0  0  0  0  0  0  0  0  0  0  0
  -10.9904   -1.1943   -3.5495 H   0  0  0  0  0  0  0  0  0  0  0  0
  -11.0666    0.8858   -2.3587 H   0  0  0  0  0  0  0  0  0  0  0  0
  -11.1816    3.0178   -1.1553 H   0  0  0  0  0  0  0  0  0  0  0  0
  -11.2911    5.1498    0.0526 H   0  0  0  0  0  0  0  0  0  0  0  0
  -11.3990    7.2979    1.2706 H   0  0  0  0  0  0  0  0  0  0  0  0
  -10.3693    8.9334    2.7988 H   0  0  0  0  0  0  0  0  0  0  0  0
   -8.1226    8.5030    3.7579 H   0  0  0  0  0  0  0  0  0  0  0  0
   -6.9067    6.4371    3.1886 H   0  0  0  0  0  0  0  0  0  0  0  0
   -6.7982    4.2886    1.9720 H   0  0  0  0  0  0  0  0  0  0  0  0
   -6.6933    2.1559    0.7645 H   0  0  0  0  0  0  0  0  0  0  0  0
   -6.5923    0.0419   -0.4307 H   0  0  0  0  0  0  0  0  0  0  0  0
   -6.8926   -3.2733    0.2287 H   0  0  0  0  0  0  0  0  0  0  0  0
   -4.6758   -3.7735    1.1570 H   0  0  0  0  0  0  0  0  0  0  0  0
   -2.2156   -3.6639    0.9915 H   0  0  0  0  0  0  0  0  0  0  0  0
    0.2293   -3.5515    0.8281 H   0  0  0  0  0  0  0  0  0  0  0  0
    2.6737   -3.4363    0.6673 H   0  0  0  0  0  0  0  0  0  0  0  0
    5.1244   -3.3194    0.5077 H   0  0  0  0  0  0  0  0  0  0  0  0
    6.5964   -0.2264    0.2680 H   0  0  0  0  0  0  0  0  0  0  0  0
    6.6434    1.9068    1.4282 H   0  0  0  0  0  0  0  0  0  0  0  0
    6.6938    4.0616    2.5981 H   0  0  0  0  0  0  0  0  0  0  0  0
    6.7476    6.2329    3.7765 H   0  0  0  0  0  0  0  0  0  0  0  0
    7.9164    7.8327    5.2419 H   0  0  0  0  0  0  0  0  0  0  0  0
   10.1627    7.2885    6.1422 H   0  0  0  0  0  0  0  0  0  0  0  0
   11.2392    5.1458    5.5778 H   0  0  0  0  0  0  0  0  0  0  0  0
   11.1862    2.9738    4.4007 H   0  0  0  0  0  0  0  0  0  0  0  0
   11.1316    0.8189    3.2301 H   0  0  0  0  0  0  0  0  0  0  0  0
   11.0707   -1.3321    2.0578 H   0  0  0  0  0  0  0  0  0  0  0  0
   11.0470   -3.4435    0.9241 H   0  0  0  0  0  0  0  0  0  0  0  0
   11.1052   -5.5882   -0.1864 H   0  0  0  0  0  0  0  0  0  0  0  0
   10.0708   -7.2776   -1.6424 H   0  0  0  0  0  0  0  0  0  0  0  0
    7.8295   -6.8643   -2.6246 H   0  0  0  0  0  0  0  0  0  0  0  0
    6.6402   -4.7843   -2.1530 H   0  0  0  0  0  0  0  0  0  0  0  0
    6.9522   -1.4088   -2.8838 H   0  0  0  0  0  0  0  0  0  0  0  0
    4.7354   -0.9151   -3.8158 H   0  0  0  0  0  0  0  0  0  0  0  0
    2.2734   -1.0300   -3.6525 H   0  0  0  0  0  0  0  0  0  0  0  0
   -0.1695   -1.1422   -3.4881 H   0  0  0  0  0  0  0  0  0  0  0  0
   -2.6128   -1.2529   -3.3256 H   0  0  0  0  0  0  0  0  0  0  0  0
   -5.0648   -1.3634   -3.1633 H   0  0  0  0  0  0  0  0  0  0  0  0
  1  2  4  0
  2  3  4  0
  3  4  4  0
  4  5  4  0
  5  6  4  0
  5  7  4  0
  7  8  4  0
  8  9  4  0
  9 10  4  0
 10 11  4  0
 11 12  4  0
 12 13  4  0
 13 14  4  0
 14 15  4  0
 15 16  4  0
 16 17  4  0
 17 18  4  0
 18 19  4  0
 19 20  4  0
 20 21  4  0
 21 22  4  0
 22 23  4  0
 23 24  4  0
 24 25  4  0
 25 26  4  0
 26 27  1  0
 27 28  4  0
 28 29  4  0
 29 30  4  0
 30 31  4  0
 31 32  4  0
 32 33  4  0
 33 34  4  0
 34 35  4  0
 35 36  4  0
 36 37  4  0
 37 38  4  0
 38 39  1  0
 39 40  4  0
 40 41  4  0
 41 42  4  0
 42 43  4  0
 43 44  4  0
 44 45  4  0
 45 46  4  0
 46 47  4  0
 47 48  4  0
 48 49  4  0
 49 50  4  0
 50 51  4  0
 51 52  4  0
 52 53  4  0
 53 54  4  0
 54 55  4  0
 55 56  4  0
 56 57  4  0
 57 58  4  0
 58 59  4  0
 59 60  4  0
 60 61  4  0
 61 62  4  0
 62 63  4  0
 63 64  4  0
 38 65  4  0
 65 66  4  0
 66 67  4  0
 67 68  4  0
 68 69  4  0
 69 70  4  0
 70 71  4  0
 71 72  4  0
 72 73  4  0
 73 74  4  0
  6  1  4  0
 25  8  4  0
 74 27  4  0
 26  4  4  0
 73 30  4  0
 23 10  4  0
 71 32  4  0
 21 12  4  0
 69 34  4  0
 19 14  4  0
 67 36  4  0
 64 39  4  0
 57 40  4  0
 64 59  4  0
 55 42  4  0
 53 44  4  0
 51 46  4  0
  1 75  1  0
  2 76  1  0
  3 77  1  0
  6 78  1  0
  7 79  1  0
  9 80  1  0
 11 81  1  0
 13 82  1  0
 15 83  1  0
 16 84  1  0
 17 85  1  0
 18 86  1  0
 20 87  1  0
 22 88  1  0
 24 89  1  0
 28 90  1  0
 29 91  1  0
 31 92  1  0
 33 93  1  0
 35 94  1  0
 37 95  1  0
 41 96  1  0
 43 97  1  0
 45 98  1  0
 47 99  1  0
 48100  1  0
 49101  1  0
 50102  1  0
 52103  1  0
 54104  1  0
 56105  1  0
 58106  1  0
 60107  1  0
 61108  1  0
 62109  1  0
 63110  1  0
 65111  1  0
 66112  1  0
 68113  1  0
 70114  1  0
 72115  1  0
 74116  1  0
M  END
