
     RDKit          3D

116132  0  0  0  0  0  0  0  0999 V2000
  -16.3745    0.0832   -3.7594 C   0  0  0  0  0  0  0  0  0  0  0  0
  -15.3744    0.3667   -4.6842 C   0  0  0  0  0  0  0  0  0  0  0  0
  -14.0594    0.5503   -4.2540 C   0  0  0  0  0  0  0  0  0  0  0  0
  -13.7283    0.4524   -2.8923 C   0  0  0  0  0  0  0  0  0  0  0  0
  -12.4098    0.6345   -2.4434 C   0  0  0  0  0  0  0  0  0  0  0  0
  -12.0792    0.5365   -1.0812 C   0  0  0  0  0  0  0  0  0  0  0  0
  -10.7604    0.7185   -0.6324 C   0  0  0  0  0  0  0  0  0  0  0  0
  -10.4288    0.6207    0.7295 C   0  0  0  0  0  0  0  0  0  0  0  0
   -9.1100    0.8027    1.1782 C   0  0  0  0  0  0  0  0  0  0  0  0
   -8.7781    0.7051    2.5403 C   0  0  0  0  0  0  0  0  0  0  0  0
   -7.4587    0.8871    2.9905 C   0  0  0  0  0  0  0  0  0  0  0  0
   -7.1028    0.7930    4.3574 C   0  0  0  0  0  0  0  0  0  0  0  0
   -8.1329    0.5058    5.2844 C   0  0  0  0  0  0  0  0  0  0  0  0
   -9.4518    0.3236    4.8342 C   0  0  0  0  0  0  0  0  0  0  0  0
   -9.7875    0.4194    3.4747 C   0  0  0  0  0  0  0  0  0  0  0  0
  -11.1073    0.2371    3.0274 C   0  0  0  0  0  0  0  0  0  0  0  0
  -11.4404    0.3342    1.6657 C   0  0  0  0  0  0  0  0  0  0  0  0
  -12.7595    0.1520    1.2171 C   0  0  0  0  0  0  0  0  0  0  0  0
  -13.0915    0.2496   -0.1449 C   0  0  0  0  0  0  0  0  0  0  0  0
  -14.4110    0.0673   -0.5928 C   0  0  0  0  0  0  0  0  0  0  0  0
  -14.7426    0.1649   -1.9544 C   0  0  0  0  0  0  0  0  0  0  0  0
  -16.0614   -0.0172   -2.4030 C   0  0  0  0  0  0  0  0  0  0  0  0
   -7.8346    0.4039    6.6516 C   0  0  0  0  0  0  0  0  0  0  0  0
   -6.5350    0.5822    7.1164 C   0  0  0  0  0  0  0  0  0  0  0  0
   -5.5133    0.8645    6.2164 C   0  0  0  0  0  0  0  0  0  0  0  0
   -5.7729    0.9730    4.8382 C   0  0  0  0  0  0  0  0  0  0  0  0
   -4.6456    1.2687    3.9405 C   0  0  0  0  0  0  0  0  0  0  0  0
   -4.2648    2.5907    3.6831 C   0  0  0  0  0  0  0  0  0  0  0  0
   -3.1992    2.8693    2.8238 C   0  0  0  0  0  0  0  0  0  0  0  0
   -2.4880    1.8313    2.2026 C   0  0  0  0  0  0  0  0  0  0  0  0
   -1.4164    2.0951    1.3338 C   0  0  0  0  0  0  0  0  0  0  0  0
   -0.7056    1.0555    0.7102 C   0  0  0  0  0  0  0  0  0  0  0  0
    0.3658    1.3188   -0.1600 C   0  0  0  0  0  0  0  0  0  0  0  0
    1.0762    0.2799   -0.7847 C   0  0  0  0  0  0  0  0  0  0  0  0
    2.1469    0.5447   -1.6552 C   0  0  0  0  0  0  0  0  0  0  0  0
    2.8579   -0.4935   -2.2796 C   0  0  0  0  0  0  0  0  0  0  0  0
    3.9306   -0.2283   -3.1486 C   0  0  0  0  0  0  0  0  0  0  0  0
    4.6438   -1.2667   -3.7678 C   0  0  0  0  0  0  0  0  0  0  0  0
    5.7701   -0.9711   -4.6669 C   0  0  0  0  0  0  0  0  0  0  0  0
    5.5089   -0.8621   -6.0447 C   0  0  0  0  0  0  0  0  0  0  0  0
    6.5299   -0.5818   -6.9463 C   0  0  0  0  0  0  0  0  0  0  0  0
    7.8307   -0.4060   -6.4837 C   0  0  0  0  0  0  0  0  0  0  0  0
    8.1306   -0.5076   -5.1166 C   0  0  0  0  0  0  0  0  0  0  0  0
    9.4503   -0.3274   -4.6677 C   0  0  0  0  0  0  0  0  0  0  0  0
    9.7872   -0.4222   -3.3083 C   0  0  0  0  0  0  0  0  0  0  0  0
   11.1077   -0.2414   -2.8616 C   0  0  0  0  0  0  0  0  0  0  0  0
   11.4413   -0.3371   -1.4998 C   0  0  0  0  0  0  0  0  0  0  0  0
   12.7610   -0.1565   -1.0518 C   0  0  0  0  0  0  0  0  0  0  0  0
   13.0932   -0.2521    0.3103 C   0  0  0  0  0  0  0  0  0  0  0  0
   14.4131   -0.0713    0.7577 C   0  0  0  0  0  0  0  0  0  0  0  0
   14.7450   -0.1667    2.1194 C   0  0  0  0  0  0  0  0  0  0  0  0
   16.0643    0.0140    2.5674 C   0  0  0  0  0  0  0  0  0  0  0  0
   16.3777   -0.0840    3.9240 C   0  0  0  0  0  0  0  0  0  0  0  0
   15.3772   -0.3637    4.8495 C   0  0  0  0  0  0  0  0  0  0  0  0
   14.0618   -0.5458    4.4200 C   0  0  0  0  0  0  0  0  0  0  0  0
   13.7305   -0.4503    3.0581 C   0  0  0  0  0  0  0  0  0  0  0  0
   12.4115   -0.6309    2.6100 C   0  0  0  0  0  0  0  0  0  0  0  0
   12.0806   -0.5353    1.2476 C   0  0  0  0  0  0  0  0  0  0  0  0
   10.7612   -0.7161    0.7993 C   0  0  0  0  0  0  0  0  0  0  0  0
   10.4296   -0.6204   -0.5628 C   0  0  0  0  0  0  0  0  0  0  0  0
    9.1103   -0.8013   -1.0108 C   0  0  0  0  0  0  0  0  0  0  0  0
    8.7781   -0.7053   -2.3728 C   0  0  0  0  0  0  0  0  0  0  0  0
    7.4582   -0.8863   -2.8217 C   0  0  0  0  0  0  0  0  0  0  0  0
    7.1010   -0.7926   -4.1882 C   0  0  0  0  0  0  0  0  0  0  0  0
    4.2626   -2.5888   -3.5111 C   0  0  0  0  0  0  0  0  0  0  0  0
    3.1982   -2.8680   -2.6505 C   0  0  0  0  0  0  0  0  0  0  0  0
    2.4880   -1.8305   -2.0273 C   0  0  0  0  0  0  0  0  0  0  0  0
    1.4173   -2.0947   -1.1573 C   0  0  0  0  0  0  0  0  0  0  0  0
    0.7067   -1.0556   -0.5326 C   0  0  0  0  0  0  0  0  0  0  0  0
   -0.3644   -1.3189    0.3381 C   0  0  0  0  0  0  0  0  0  0  0  0
   -1.0751   -0.2799    0.9624 C   0  0  0  0  0  0  0  0  0  0  0  0
   -2.1465   -0.5442    1.8323 C   0  0  0  0  0  0  0  0  0  0  0  0
   -2.8579    0.4944    2.4554 C   0  0  0  0  0  0  0  0  0  0  0  0
   -3.9313    0.2297    3.3234 C   0  0  0  0  0  0  0  0  0  0  0  0
  -17.3991   -0.0601   -4.0921 H   0  0  0  0  0  0  0  0  0  0  0  0
  -15.6161    0.4453   -5.7409 H   0  0  0  0  0  0  0  0  0  0  0  0
  -13.2916    0.7712   -4.9921 H   0  0  0  0  0  0  0  0  0  0  0  0
  -11.6278    0.8563   -3.1674 H   0  0  0  0  0  0  0  0  0  0  0  0
   -9.9774    0.9407   -1.3555 H   0  0  0  0  0  0  0  0  0  0  0  0
   -8.3271    1.0243    0.4547 H   0  0  0  0  0  0  0  0  0  0  0  0
   -6.6887    1.1097    2.2530 H   0  0  0  0  0  0  0  0  0  0  0  0
  -10.2349    0.1029    5.5578 H   0  0  0  0  0  0  0  0  0  0  0  0
  -11.8889    0.0161    3.7520 H   0  0  0  0  0  0  0  0  0  0  0  0
  -13.5420   -0.0696    1.9407 H   0  0  0  0  0  0  0  0  0  0  0  0
  -15.1938   -0.1545    0.1302 H   0  0  0  0  0  0  0  0  0  0  0  0
  -16.8571   -0.2395   -1.6956 H   0  0  0  0  0  0  0  0  0  0  0  0
   -8.6201    0.1831    7.3716 H   0  0  0  0  0  0  0  0  0  0  0  0
   -6.3189    0.5004    8.1783 H   0  0  0  0  0  0  0  0  0  0  0  0
   -4.4999    1.0001    6.5905 H   0  0  0  0  0  0  0  0  0  0  0  0
   -4.8034    3.4135    4.1493 H   0  0  0  0  0  0  0  0  0  0  0  0
   -2.9305    3.9076    2.6423 H   0  0  0  0  0  0  0  0  0  0  0  0
   -1.1312    3.1274    1.1391 H   0  0  0  0  0  0  0  0  0  0  0  0
    0.6518    2.3510   -0.3548 H   0  0  0  0  0  0  0  0  0  0  0  0
    2.4327    1.5770   -1.8501 H   0  0  0  0  0  0  0  0  0  0  0  0
    4.2235    0.8019   -3.3465 H   0  0  0  0  0  0  0  0  0  0  0  0
    4.4948   -0.9963   -6.4174 H   0  0  0  0  0  0  0  0  0  0  0  0
    6.3120   -0.5001   -8.0077 H   0  0  0  0  0  0  0  0  0  0  0  0
    8.6157   -0.1876   -7.2050 H   0  0  0  0  0  0  0  0  0  0  0  0
   10.2332   -0.1088   -5.3923 H   0  0  0  0  0  0  0  0  0  0  0  0
   11.8892   -0.0226   -3.5869 H   0  0  0  0  0  0  0  0  0  0  0  0
   13.5438    0.0622   -1.7760 H   0  0  0  0  0  0  0  0  0  0  0  0
   15.1964    0.1474    0.0342 H   0  0  0  0  0  0  0  0  0  0  0  0
   16.8603    0.2333    1.8593 H   0  0  0  0  0  0  0  0  0  0  0  0
   17.4027    0.0581    4.2562 H   0  0  0  0  0  0  0  0  0  0  0  0
   15.6190   -0.4405    5.9064 H   0  0  0  0  0  0  0  0  0  0  0  0
   13.2936   -0.7636    5.1585 H   0  0  0  0  0  0  0  0  0  0  0  0
   11.6293   -0.8497    3.3346 H   0  0  0  0  0  0  0  0  0  0  0  0
    9.9781   -0.9352    1.5231 H   0  0  0  0  0  0  0  0  0  0  0  0
    8.3271   -1.0208   -0.2869 H   0  0  0  0  0  0  0  0  0  0  0  0
    6.6886   -1.1071   -2.0833 H   0  0  0  0  0  0  0  0  0  0  0  0
    4.7995   -3.4116   -3.9795 H   0  0  0  0  0  0  0  0  0  0  0  0
    2.9291   -3.9063   -2.4698 H   0  0  0  0  0  0  0  0  0  0  0  0
    1.1325   -3.1273   -0.9633 H   0  0  0  0  0  0  0  0  0  0  0  0
   -0.6508   -2.3509    0.5335 H   0  0  0  0  0  0  0  0  0  0  0  0
   -2.4324   -1.5764    2.0276 H   0  0  0  0  0  0  0  0  0  0  0  0
   -4.2246   -0.8002    3.5224 H   0  0  0  0  0  0  0  0  0  0  0  0
  1  2  4  0
  2  3  4  0
  3  4  4  0
  4  5  4  0
  5  6  4  0
  6  7  4  0
  7  8  4  0
  8  9  4  0
  9 10  4  0
 10 11  4  0
 11 12  4  0
 12 13  4  0
 13 14  4  0
 14 15  4  0
 15 16  4  0
 16 17  4  0
 17 18  4  0
 18 19  4  0
 19 20  4  0
 20 21  4  0
 21 22  4  0
 13 23  4  0
 23 24  4  0
 24 25  4  0
 25 26  4  0
 26 27  1  0
 27 28  4  0
 28 29  4  0
 29 30  4  0
 30 31  4  0
 31 32  4  0
 32 33  4  0
 33 34  4  0
 34 35  4  0
 35 36  4  0
 36 37  4  0
 37 38  4  0
 38 39  1  0
 39 40  4  0
 40 41  4  0
 41 42  4  0
 42 43  4  0
 43 44  4  0
 44 45  4  0
 45 46  4  0
 46 47  4  0
 47 48  4  0
 48 49  4  0
 49 50  4  0
 50 51  4  0
 51 52  4  0
 52 53  4  0
 53 54  4  0
 54 55  4  0
 55 56  4  0
 56 57  4  0
 57 58  4  0
 58 59  4  0
 59 60  4  0
 60 61  4  0
 61 62  4  0
 62 63  4  0
 63 64  4  0
 38 65  4  0
 65 66  4  0
 66 67  4  0
 67 68  4  0
 68 69  4  0
 69 70  4  0
 70 71  4  0
 71 72  4  0
 72 73  4  0
 73 74  4  0
 22  1  4  0
 74 27  4  0
 21  4  4  0
 73 30  4  0
 19  6  4  0
 71 32  4  0
 17  8  4  0
 69 34  4  0
 15 10  4  0
 67 36  4  0
 26 12  4  0
 64 39  4  0
 64 43  4  0
 62 45  4  0
 60 47  4  0
 58 49  4  0
 56 51  4  0
  1 75  1  0
  2 76  1  0
  3 77  1  0
  5 78  1  0
  7 79  1  0
  9 80  1  0
 11 81  1  0
 14 82  1  0
 16 83  1  0
 18 84  1  0
 20 85  1  0
 22 86  1  0
 23 87  1  0
 24 88  1  0
 25 89  1  0
 28 90  1  0
 29 91  1  0
 31 92  1  0
 33 93  1  0
 35 94  1  0
 37 95  1  0
 40 96  1  0
 41 97  1  0
 42 98  1  0
 44 99  1  0
 46100  1  0
 48101  1  0
 50102  1  0
 52103  1  0
 53104  1  0
 54105  1  0
 55106  1  0
 57107  1  0
 59108  1  0
 61109  1  0
 63110  1  0
 65111  1  0
 66112  1  0
 68113  1  0
 70114  1  0
 72115  1  0
 74116  1  0
M  END
