
     RDKit          3D

116132  0  0  0  0  0  0  0  0999 V2000
  -12.7898    3.9590   -6.1526 C   0  0  0  0  0  0  0  0  0  0  0  0
  -11.5037    4.0476   -6.6762 C   0  0  0  0  0  0  0  0  0  0  0  0
  -10.4475    3.3894   -6.0441 C   0  0  0  0  0  0  0  0  0  0  0  0
  -10.6647    2.6338   -4.8799 C   0  0  0  0  0  0  0  0  0  0  0  0
   -9.6123    1.9657   -4.2325 C   0  0  0  0  0  0  0  0  0  0  0  0
   -9.8302    1.2100   -3.0681 C   0  0  0  0  0  0  0  0  0  0  0  0
   -8.7777    0.5411   -2.4209 C   0  0  0  0  0  0  0  0  0  0  0  0
   -8.9944   -0.2152   -1.2563 C   0  0  0  0  0  0  0  0  0  0  0  0
   -7.9431   -0.8868   -0.6073 C   0  0  0  0  0  0  0  0  0  0  0  0
   -8.1332   -1.6548    0.5699 C   0  0  0  0  0  0  0  0  0  0  0  0
   -9.4438   -1.7280    1.0849 C   0  0  0  0  0  0  0  0  0  0  0  0
  -10.4983   -1.0589    0.4374 C   0  0  0  0  0  0  0  0  0  0  0  0
  -10.2909   -0.3035   -0.7265 C   0  0  0  0  0  0  0  0  0  0  0  0
  -11.3459    0.3646   -1.3722 C   0  0  0  0  0  0  0  0  0  0  0  0
  -11.1315    1.1204   -2.5373 C   0  0  0  0  0  0  0  0  0  0  0  0
  -12.1852    1.7885   -3.1842 C   0  0  0  0  0  0  0  0  0  0  0  0
  -11.9689    2.5440   -4.3488 C   0  0  0  0  0  0  0  0  0  0  0  0
  -13.0215    3.2122   -4.9965 C   0  0  0  0  0  0  0  0  0  0  0  0
   -9.6949   -2.4706    2.2456 C   0  0  0  0  0  0  0  0  0  0  0  0
   -8.6774   -3.1520    2.9243 C   0  0  0  0  0  0  0  0  0  0  0  0
   -8.9766   -3.8843    4.0869 C   0  0  0  0  0  0  0  0  0  0  0  0
   -7.9832   -4.5705    4.7819 C   0  0  0  0  0  0  0  0  0  0  0  0
   -6.6753   -4.5323    4.3223 C   0  0  0  0  0  0  0  0  0  0  0  0
   -6.3660   -3.8087    3.1683 C   0  0  0  0  0  0  0  0  0  0  0  0
   -7.3527   -3.1003    2.4368 C   0  0  0  0  0  0  0  0  0  0  0  0
   -7.0794   -2.3475    1.2498 C   0  0  0  0  0  0  0  0  0  0  0  0
   -5.6995   -2.2859    0.7207 C   0  0  0  0  0  0  0  0  0  0  0  0
   -5.2406   -3.2459   -0.1900 C   0  0  0  0  0  0  0  0  0  0  0  0
   -3.9386   -3.1844   -0.6916 C   0  0  0  0  0  0  0  0  0  0  0  0
   -3.0651   -2.1602   -0.2953 C   0  0  0  0  0  0  0  0  0  0  0  0
   -1.7535   -2.0838   -0.7916 C   0  0  0  0  0  0  0  0  0  0  0  0
   -0.8790   -1.0571   -0.3967 C   0  0  0  0  0  0  0  0  0  0  0  0
    0.4336   -0.9796   -0.8925 C   0  0  0  0  0  0  0  0  0  0  0  0
    1.3077    0.0476   -0.4980 C   0  0  0  0  0  0  0  0  0  0  0  0
    2.6202    0.1242   -0.9939 C   0  0  0  0  0  0  0  0  0  0  0  0
    3.4938    1.1513   -0.6003 C   0  0  0  0  0  0  0  0  0  0  0  0
    4.8056    1.2285   -1.0984 C   0  0  0  0  0  0  0  0  0  0  0  0
    5.6779    2.2558   -0.7033 C   0  0  0  0  0  0  0  0  0  0  0  0
    7.0554    2.3237   -1.2383 C   0  0  0  0  0  0  0  0  0  0  0  0
    7.3179    3.0714   -2.4313 C   0  0  0  0  0  0  0  0  0  0  0  0
    6.3237    3.7710   -3.1615 C   0  0  0  0  0  0  0  0  0  0  0  0
    6.6231    4.4904   -4.3208 C   0  0  0  0  0  0  0  0  0  0  0  0
    7.9280    4.5323   -4.7877 C   0  0  0  0  0  0  0  0  0  0  0  0
    8.9287    3.8548   -4.0946 C   0  0  0  0  0  0  0  0  0  0  0  0
    8.6396    3.1278   -2.9263 C   0  0  0  0  0  0  0  0  0  0  0  0
    9.6650    2.4568   -2.2494 C   0  0  0  0  0  0  0  0  0  0  0  0
    9.4246    1.7209   -1.0824 C   0  0  0  0  0  0  0  0  0  0  0  0
   10.4872    1.0633   -0.4371 C   0  0  0  0  0  0  0  0  0  0  0  0
   10.2919    0.3158    0.7337 C   0  0  0  0  0  0  0  0  0  0  0  0
   11.3560   -0.3399    1.3763 C   0  0  0  0  0  0  0  0  0  0  0  0
   11.1557   -1.0874    2.5488 C   0  0  0  0  0  0  0  0  0  0  0  0
   12.2197   -1.7428    3.1914 C   0  0  0  0  0  0  0  0  0  0  0  0
   12.0191   -2.4902    4.3638 C   0  0  0  0  0  0  0  0  0  0  0  0
   13.0826   -3.1455    5.0069 C   0  0  0  0  0  0  0  0  0  0  0  0
   12.8672   -3.8841    6.1714 C   0  0  0  0  0  0  0  0  0  0  0  0
   11.5867   -3.9772    6.7077 C   0  0  0  0  0  0  0  0  0  0  0  0
   10.5199   -3.3319    6.0803 C   0  0  0  0  0  0  0  0  0  0  0  0
   10.7206   -2.5846    4.9076 C   0  0  0  0  0  0  0  0  0  0  0  0
    9.6576   -1.9289    4.2641 C   0  0  0  0  0  0  0  0  0  0  0  0
    9.8595   -1.1813    3.0913 C   0  0  0  0  0  0  0  0  0  0  0  0
    8.7974   -0.5246    2.4466 C   0  0  0  0  0  0  0  0  0  0  0  0
    8.9999    0.2232    1.2736 C   0  0  0  0  0  0  0  0  0  0  0  0
    7.9397    0.8825    0.6254 C   0  0  0  0  0  0  0  0  0  0  0  0
    8.1175    1.6428   -0.5591 C   0  0  0  0  0  0  0  0  0  0  0  0
    5.2175    3.2153    0.2071 C   0  0  0  0  0  0  0  0  0  0  0  0
    3.9161    3.1516    0.7097 C   0  0  0  0  0  0  0  0  0  0  0  0
    3.0438    2.1260    0.3140 C   0  0  0  0  0  0  0  0  0  0  0  0
    1.7317    2.0496    0.8088 C   0  0  0  0  0  0  0  0  0  0  0  0
    0.8580    1.0220    0.4141 C   0  0  0  0  0  0  0  0  0  0  0  0
   -0.4546    0.9449    0.9094 C   0  0  0  0  0  0  0  0  0  0  0  0
   -1.3281   -0.0830    0.5162 C   0  0  0  0  0  0  0  0  0  0  0  0
   -2.6398   -0.1597    1.0140 C   0  0  0  0  0  0  0  0  0  0  0  0
   -3.5136   -1.1861    0.6202 C   0  0  0  0  0  0  0  0  0  0  0  0
   -4.8252   -1.2616    1.1185 C   0  0  0  0  0  0  0  0  0  0  0  0
  -13.6138    4.4708   -6.6427 H   0  0  0  0  0  0  0  0  0  0  0  0
  -11.3208    4.6288   -7.5761 H   0  0  0  0  0  0  0  0  0  0  0  0
   -9.4490    3.4705   -6.4677 H   0  0  0  0  0  0  0  0  0  0  0  0
   -8.6058    2.0350   -4.6412 H   0  0  0  0  0  0  0  0  0  0  0  0
   -7.7708    0.6101   -2.8297 H   0  0  0  0  0  0  0  0  0  0  0  0
   -6.9452   -0.8055   -1.0365 H   0  0  0  0  0  0  0  0  0  0  0  0
  -11.5043   -1.1270    0.8487 H   0  0  0  0  0  0  0  0  0  0  0  0
  -12.3513    0.2952   -0.9606 H   0  0  0  0  0  0  0  0  0  0  0  0
  -13.1913    1.7196   -2.7746 H   0  0  0  0  0  0  0  0  0  0  0  0
  -14.0336    3.1551   -4.6022 H   0  0  0  0  0  0  0  0  0  0  0  0
  -10.7119   -2.5193    2.6328 H   0  0  0  0  0  0  0  0  0  0  0  0
   -9.9967   -3.9257    4.4633 H   0  0  0  0  0  0  0  0  0  0  0  0
   -8.2321   -5.1316    5.6786 H   0  0  0  0  0  0  0  0  0  0  0  0
   -5.8910   -5.0626    4.8559 H   0  0  0  0  0  0  0  0  0  0  0  0
   -5.3275   -3.8037    2.8416 H   0  0  0  0  0  0  0  0  0  0  0  0
   -5.9003   -4.0490   -0.5132 H   0  0  0  0  0  0  0  0  0  0  0  0
   -3.6127   -3.9455   -1.3971 H   0  0  0  0  0  0  0  0  0  0  0  0
   -1.4097   -2.8367   -1.4985 H   0  0  0  0  0  0  0  0  0  0  0  0
    0.7817   -1.7320   -1.5983 H   0  0  0  0  0  0  0  0  0  0  0  0
    2.9689   -0.6288   -1.6989 H   0  0  0  0  0  0  0  0  0  0  0  0
    5.1607    0.4806   -1.8062 H   0  0  0  0  0  0  0  0  0  0  0  0
    5.2871    3.7629   -2.8292 H   0  0  0  0  0  0  0  0  0  0  0  0
    5.8337    5.0146   -4.8528 H   0  0  0  0  0  0  0  0  0  0  0  0
    8.1694    5.0899   -5.6885 H   0  0  0  0  0  0  0  0  0  0  0  0
    9.9465    3.8995   -4.4769 H   0  0  0  0  0  0  0  0  0  0  0  0
   10.6795    2.5092   -2.6429 H   0  0  0  0  0  0  0  0  0  0  0  0
   11.4903    1.1345   -0.8553 H   0  0  0  0  0  0  0  0  0  0  0  0
   12.3576   -0.2669    0.9564 H   0  0  0  0  0  0  0  0  0  0  0  0
   13.2214   -1.6699    2.7721 H   0  0  0  0  0  0  0  0  0  0  0  0
   14.0905   -3.0841    4.6027 H   0  0  0  0  0  0  0  0  0  0  0  0
   13.6994   -4.3856    6.6583 H   0  0  0  0  0  0  0  0  0  0  0  0
   11.4166   -4.5515    7.6146 H   0  0  0  0  0  0  0  0  0  0  0  0
    9.5262   -3.4162    6.5146 H   0  0  0  0  0  0  0  0  0  0  0  0
    8.6558   -2.0018    4.6836 H   0  0  0  0  0  0  0  0  0  0  0  0
    7.7946   -0.5962    2.8647 H   0  0  0  0  0  0  0  0  0  0  0  0
    6.9450    0.7979    1.0613 H   0  0  0  0  0  0  0  0  0  0  0  0
    5.8753    4.0209    0.5281 H   0  0  0  0  0  0  0  0  0  0  0  0
    3.5893    3.9131    1.4144 H   0  0  0  0  0  0  0  0  0  0  0  0
    1.3844    2.8037    1.5128 H   0  0  0  0  0  0  0  0  0  0  0  0
   -0.8034    1.6981    1.6140 H   0  0  0  0  0  0  0  0  0  0  0  0
   -2.9881    0.5925    1.7199 H   0  0  0  0  0  0  0  0  0  0  0  0
   -5.1789   -0.5134    1.8266 H   0  0  0  0  0  0  0  0  0  0  0  0
  1  2  4  0
  2  3  4  0
  3  4  4  0
  4  5  4  0
  5  6  4  0
  6  7  4  0
  7  8  4  0
  8  9  4  0
  9 10  4  0
 10 11  4  0
 11 12  4  0
 12 13  4  0
 13 14  4  0
 14 15  4  0
 15 16  4  0
 16 17  4  0
 17 18  4  0
 11 19  4  0
 19 20  4  0
 20 21  4  0
 21 22  4  0
 22 23  4  0
 23 24  4  0
 24 25  4  0
 25 26  4  0
 26 27  1  0
 27 28  4  0
 28 29  4  0
 29 30  4  0
 30 31  4  0
 31 32  4  0
 32 33  4  0
 33 34  4  0
 34 35  4  0
 35 36  4  0
 36 37  4  0
 37 38  4  0
 38 39  1  0
 39 40  4  0
 40 41  4  0
 41 42  4  0
 42 43  4  0
 43 44  4  0
 44 45  4  0
 45 46  4  0
 46 47  4  0
 47 48  4  0
 48 49  4  0
 49 50  4  0
 50 51  4  0
 51 52  4  0
 52 53  4  0
 53 54  4  0
 54 55  4  0
 55 56  4  0
 56 57  4  0
 57 58  4  0
 58 59  4  0
 59 60  4  0
 60 61  4  0
 61 62  4  0
 62 63  4  0
 63 64  4  0
 38 65  4  0
 65 66  4  0
 66 67  4  0
 67 68  4  0
 68 69  4  0
 69 70  4  0
 70 71  4  0
 71 72  4  0
 72 73  4  0
 73 74  4  0
 18  1  4  0
 25 20  4  0
 74 27  4  0
 17  4  4  0
 73 30  4  0
 15  6  4  0
 71 32  4  0
 13  8  4  0
 69 34  4  0
 26 10  4  0
 67 36  4  0
 64 39  4  0
 45 40  4  0
 64 47  4  0
 62 49  4  0
 60 51  4  0
 58 53  4  0
  1 75  1  0
  2 76  1  0
  3 77  1  0
  5 78  1  0
  7 79  1  0
  9 80  1  0
 12 81  1  0
 14 82  1  0
 16 83  1  0
 18 84  1  0
 19 85  1  0
 21 86  1  0
 22 87  1  0
 23 88  1  0
 24 89  1  0
 28 90  1  0
 29 91  1  0
 31 92  1  0
 33 93  1  0
 35 94  1  0
 37 95  1  0
 41 96  1  0
 42 97  1  0
 43 98  1  0
 44 99  1  0
 46100  1  0
 48101  1  0
 50102  1  0
 52103  1  0
 54104  1  0
 55105  1  0
 56106  1  0
 57107  1  0
 59108  1  0
 61109  1  0
 63110  1  0
 65111  1  0
 66112  1  0
 68113  1  0
 70114  1  0
 72115  1  0
 74116  1  0
M  END
