
     RDKit          3D

116132  0  0  0  0  0  0  0  0999 V2000
  -16.3698   -4.0551   -0.7740 C   0  0  0  0  0  0  0  0  0  0  0  0
  -16.0599   -2.6971   -0.8637 C   0  0  0  0  0  0  0  0  0  0  0  0
  -14.7510   -2.2415   -0.6336 C   0  0  0  0  0  0  0  0  0  0  0  0
  -14.4229   -0.8782   -0.7200 C   0  0  0  0  0  0  0  0  0  0  0  0
  -13.1133   -0.4233   -0.4895 C   0  0  0  0  0  0  0  0  0  0  0  0
  -12.7839    0.9402   -0.5753 C   0  0  0  0  0  0  0  0  0  0  0  0
  -11.4742    1.3946   -0.3445 C   0  0  0  0  0  0  0  0  0  0  0  0
  -11.1429    2.7577   -0.4294 C   0  0  0  0  0  0  0  0  0  0  0  0
   -9.8323    3.2102   -0.1983 C   0  0  0  0  0  0  0  0  0  0  0  0
   -9.4978    4.5708   -0.2821 C   0  0  0  0  0  0  0  0  0  0  0  0
   -8.1881    5.0254   -0.0511 C   0  0  0  0  0  0  0  0  0  0  0  0
   -7.8905    6.3933   -0.1437 C   0  0  0  0  0  0  0  0  0  0  0  0
   -6.5998    6.8622    0.0821 C   0  0  0  0  0  0  0  0  0  0  0  0
   -5.5868    5.9659    0.4045 C   0  0  0  0  0  0  0  0  0  0  0  0
   -5.8462    4.5873    0.5066 C   0  0  0  0  0  0  0  0  0  0  0  0
   -4.7287    3.6948    0.8513 C   0  0  0  0  0  0  0  0  0  0  0  0
   -4.4315    3.4060    2.1883 C   0  0  0  0  0  0  0  0  0  0  0  0
   -3.3728    2.5549    2.5139 C   0  0  0  0  0  0  0  0  0  0  0  0
   -2.5845    1.9741    1.5088 C   0  0  0  0  0  0  0  0  0  0  0  0
   -1.5172    1.1157    1.8195 C   0  0  0  0  0  0  0  0  0  0  0  0
   -0.7281    0.5338    0.8128 C   0  0  0  0  0  0  0  0  0  0  0  0
    0.3399   -0.3247    1.1231 C   0  0  0  0  0  0  0  0  0  0  0  0
    1.1301   -0.9058    0.1171 C   0  0  0  0  0  0  0  0  0  0  0  0
    2.1993   -1.7624    0.4285 C   0  0  0  0  0  0  0  0  0  0  0  0
    2.9914   -2.3406   -0.5769 C   0  0  0  0  0  0  0  0  0  0  0  0
    4.0644   -3.1926   -0.2643 C   0  0  0  0  0  0  0  0  0  0  0  0
    4.8625   -3.7621   -1.2690 C   0  0  0  0  0  0  0  0  0  0  0  0
    5.9919   -4.6395   -0.9230 C   0  0  0  0  0  0  0  0  0  0  0  0
    7.2768   -4.1273   -0.5771 C   0  0  0  0  0  0  0  0  0  0  0  0
    7.5843   -2.7458   -0.5434 C   0  0  0  0  0  0  0  0  0  0  0  0
    8.8589   -2.2647   -0.1968 C   0  0  0  0  0  0  0  0  0  0  0  0
    9.1413   -0.8884   -0.1671 C   0  0  0  0  0  0  0  0  0  0  0  0
   10.4154   -0.4083    0.1792 C   0  0  0  0  0  0  0  0  0  0  0  0
   10.6978    0.9677    0.2091 C   0  0  0  0  0  0  0  0  0  0  0  0
   11.9721    1.4477    0.5551 C   0  0  0  0  0  0  0  0  0  0  0  0
   12.2538    2.8241    0.5844 C   0  0  0  0  0  0  0  0  0  0  0  0
   13.5278    3.3040    0.9303 C   0  0  0  0  0  0  0  0  0  0  0  0
   13.8101    4.6798    0.9599 C   0  0  0  0  0  0  0  0  0  0  0  0
   15.0812    5.1408    1.3056 C   0  0  0  0  0  0  0  0  0  0  0  0
   16.0858    4.2331    1.6259 C   0  0  0  0  0  0  0  0  0  0  0  0
   15.8209    2.8630    1.6010 C   0  0  0  0  0  0  0  0  0  0  0  0
   14.5467    2.3834    1.2551 C   0  0  0  0  0  0  0  0  0  0  0  0
   14.2641    1.0078    1.2254 C   0  0  0  0  0  0  0  0  0  0  0  0
   12.9892    0.5287    0.8793 C   0  0  0  0  0  0  0  0  0  0  0  0
   12.7063   -0.8474    0.8494 C   0  0  0  0  0  0  0  0  0  0  0  0
   11.4317   -1.3271    0.5033 C   0  0  0  0  0  0  0  0  0  0  0  0
   11.1480   -2.7030    0.4732 C   0  0  0  0  0  0  0  0  0  0  0  0
    9.8727   -3.1817    0.1269 C   0  0  0  0  0  0  0  0  0  0  0  0
    9.5858   -4.5554    0.0955 C   0  0  0  0  0  0  0  0  0  0  0  0
    8.3112   -5.0364   -0.2502 C   0  0  0  0  0  0  0  0  0  0  0  0
    8.0616   -6.4170   -0.2728 C   0  0  0  0  0  0  0  0  0  0  0  0
    6.8064   -6.9122   -0.6137 C   0  0  0  0  0  0  0  0  0  0  0  0
    5.7808   -6.0301   -0.9358 C   0  0  0  0  0  0  0  0  0  0  0  0
    4.5638   -3.4757   -2.6062 C   0  0  0  0  0  0  0  0  0  0  0  0
    3.4981   -2.6336   -2.9328 C   0  0  0  0  0  0  0  0  0  0  0  0
    2.7056   -2.0571   -1.9283 C   0  0  0  0  0  0  0  0  0  0  0  0
    1.6355   -1.2023   -2.2392 C   0  0  0  0  0  0  0  0  0  0  0  0
    0.8450   -0.6223   -1.2326 C   0  0  0  0  0  0  0  0  0  0  0  0
   -0.2235    0.2356   -1.5429 C   0  0  0  0  0  0  0  0  0  0  0  0
   -1.0132    0.8174   -0.5369 C   0  0  0  0  0  0  0  0  0  0  0  0
   -2.0807    1.6762   -0.8481 C   0  0  0  0  0  0  0  0  0  0  0  0
   -2.8700    2.2583    0.1575 C   0  0  0  0  0  0  0  0  0  0  0  0
   -3.9382    3.1167   -0.1544 C   0  0  0  0  0  0  0  0  0  0  0  0
   -7.1665    4.1021    0.2760 C   0  0  0  0  0  0  0  0  0  0  0  0
   -7.5208    2.7341    0.3562 C   0  0  0  0  0  0  0  0  0  0  0  0
   -8.8308    2.2796    0.1250 C   0  0  0  0  0  0  0  0  0  0  0  0
   -9.1605    0.9164    0.2101 C   0  0  0  0  0  0  0  0  0  0  0  0
  -10.4698    0.4627   -0.0206 C   0  0  0  0  0  0  0  0  0  0  0  0
  -10.7986   -0.9003    0.0652 C   0  0  0  0  0  0  0  0  0  0  0  0
  -12.1078   -1.3547   -0.1651 C   0  0  0  0  0  0  0  0  0  0  0  0
  -12.4347   -2.7184   -0.0784 C   0  0  0  0  0  0  0  0  0  0  0  0
  -13.7433   -3.1740   -0.3084 C   0  0  0  0  0  0  0  0  0  0  0  0
  -14.0708   -4.5373   -0.2218 C   0  0  0  0  0  0  0  0  0  0  0  0
  -15.3759   -4.9745   -0.4532 C   0  0  0  0  0  0  0  0  0  0  0  0
  -17.3868   -4.3932   -0.9546 H   0  0  0  0  0  0  0  0  0  0  0  0
  -16.8503   -1.9937   -1.1156 H   0  0  0  0  0  0  0  0  0  0  0  0
  -15.2008   -0.1593   -0.9710 H   0  0  0  0  0  0  0  0  0  0  0  0
  -13.5608    1.6603   -0.8259 H   0  0  0  0  0  0  0  0  0  0  0  0
  -11.9185    3.4793   -0.6794 H   0  0  0  0  0  0  0  0  0  0  0  0
  -10.2747    5.2914   -0.5326 H   0  0  0  0  0  0  0  0  0  0  0  0
   -8.6695    7.1104   -0.3946 H   0  0  0  0  0  0  0  0  0  0  0  0
   -6.3839    7.9245    0.0068 H   0  0  0  0  0  0  0  0  0  0  0  0
   -4.5807    6.3436    0.5791 H   0  0  0  0  0  0  0  0  0  0  0  0
   -5.0299    3.8422    2.9858 H   0  0  0  0  0  0  0  0  0  0  0  0
   -3.1698    2.3490    3.5625 H   0  0  0  0  0  0  0  0  0  0  0  0
   -1.2966    0.8969    2.8627 H   0  0  0  0  0  0  0  0  0  0  0  0
    0.5604   -0.5439    2.1664 H   0  0  0  0  0  0  0  0  0  0  0  0
    2.4204   -1.9816    1.4718 H   0  0  0  0  0  0  0  0  0  0  0  0
    4.2923   -3.4146    0.7774 H   0  0  0  0  0  0  0  0  0  0  0  0
    6.8113   -2.0209   -0.7953 H   0  0  0  0  0  0  0  0  0  0  0  0
    8.3542   -0.1790   -0.4182 H   0  0  0  0  0  0  0  0  0  0  0  0
    9.9113    1.6775   -0.0419 H   0  0  0  0  0  0  0  0  0  0  0  0
   11.4685    3.5349    0.3335 H   0  0  0  0  0  0  0  0  0  0  0  0
   13.0380    5.4050    0.7126 H   0  0  0  0  0  0  0  0  0  0  0  0
   15.2854    6.2081    1.3243 H   0  0  0  0  0  0  0  0  0  0  0  0
   17.0764    4.5897    1.8955 H   0  0  0  0  0  0  0  0  0  0  0  0
   16.6194    2.1693    1.8546 H   0  0  0  0  0  0  0  0  0  0  0  0
   15.0508    0.2983    1.4759 H   0  0  0  0  0  0  0  0  0  0  0  0
   13.4925   -1.5575    1.0997 H   0  0  0  0  0  0  0  0  0  0  0  0
   11.9333   -3.4141    0.7232 H   0  0  0  0  0  0  0  0  0  0  0  0
   10.3725   -5.2654    0.3455 H   0  0  0  0  0  0  0  0  0  0  0  0
    8.8507   -7.1235   -0.0232 H   0  0  0  0  0  0  0  0  0  0  0  0
    6.6277   -7.9841   -0.6268 H   0  0  0  0  0  0  0  0  0  0  0  0
    4.8020   -6.4285   -1.1977 H   0  0  0  0  0  0  0  0  0  0  0  0
    5.1685   -3.9042   -3.4031 H   0  0  0  0  0  0  0  0  0  0  0  0
    3.2945   -2.4292   -3.9816 H   0  0  0  0  0  0  0  0  0  0  0  0
    1.4149   -0.9834   -3.2825 H   0  0  0  0  0  0  0  0  0  0  0  0
   -0.4439    0.4550   -2.5862 H   0  0  0  0  0  0  0  0  0  0  0  0
   -2.3015    1.8958   -1.8913 H   0  0  0  0  0  0  0  0  0  0  0  0
   -4.1662    3.3394   -1.1958 H   0  0  0  0  0  0  0  0  0  0  0  0
   -6.7571    1.9988    0.6059 H   0  0  0  0  0  0  0  0  0  0  0  0
   -8.3833    0.1962    0.4605 H   0  0  0  0  0  0  0  0  0  0  0  0
  -10.0216   -1.6204    0.3157 H   0  0  0  0  0  0  0  0  0  0  0  0
  -11.6571   -3.4374    0.1725 H   0  0  0  0  0  0  0  0  0  0  0  0
  -13.3076   -5.2712    0.0276 H   0  0  0  0  0  0  0  0  0  0  0  0
  -15.6149   -6.0324   -0.3828 H   0  0  0  0  0  0  0  0  0  0  0  0
  1  2  4  0
  2  3  4  0
  3  4  4  0
  4  5  4  0
  5  6  4  0
  6  7  4  0
  7  8  4  0
  8  9  4  0
  9 10  4  0
 10 11  4  0
 11 12  4  0
 12 13  4  0
 13 14  4  0
 14 15  4  0
 15 16  1  0
 16 17  4  0
 17 18  4  0
 18 19  4  0
 19 20  4  0
 20 21  4  0
 21 22  4  0
 22 23  4  0
 23 24  4  0
 24 25  4  0
 25 26  4  0
 26 27  4  0
 27 28  1  0
 28 29  4  0
 29 30  4  0
 30 31  4  0
 31 32  4  0
 32 33  4  0
 33 34  4  0
 34 35  4  0
 35 36  4  0
 36 37  4  0
 37 38  4  0
 38 39  4  0
 39 40  4  0
 40 41  4  0
 41 42  4  0
 42 43  4  0
 43 44  4  0
 44 45  4  0
 45 46  4  0
 46 47  4  0
 47 48  4  0
 48 49  4  0
 49 50  4  0
 50 51  4  0
 51 52  4  0
 52 53  4  0
 27 54  4  0
 54 55  4  0
 55 56  4  0
 56 57  4  0
 57 58  4  0
 58 59  4  0
 59 60  4  0
 60 61  4  0
 61 62  4  0
 62 63  4  0
 15 64  4  0
 64 65  4  0
 65 66  4  0
 66 67  4  0
 67 68  4  0
 68 69  4  0
 69 70  4  0
 70 71  4  0
 71 72  4  0
 72 73  4  0
 73 74  4  0
 74  1  4  0
 72  3  4  0
 70  5  4  0
 68  7  4  0
 66  9  4  0
 64 11  4  0
 63 16  4  0
 62 19  4  0
 60 21  4  0
 58 23  4  0
 56 25  4  0
 53 28  4  0
 50 29  4  0
 48 31  4  0
 46 33  4  0
 44 35  4  0
 42 37  4  0
  1 75  1  0
  2 76  1  0
  4 77  1  0
  6 78  1  0
  8 79  1  0
 10 80  1  0
 12 81  1  0
 13 82  1  0
 14 83  1  0
 17 84  1  0
 18 85  1  0
 20 86  1  0
 22 87  1  0
 24 88  1  0
 26 89  1  0
 30 90  1  0
 32 91  1  0
 34 92  1  0
 36 93  1  0
 38 94  1  0
 39 95  1  0
 40 96  1  0
 41 97  1  0
 43 98  1  0
 45 99  1  0
 47100  1  0
 49101  1  0
 51102  1  0
 52103  1  0
 53104  1  0
 54105  1  0
 55106  1  0
 57107  1  0
 59108  1  0
 61109  1  0
 63110  1  0
 65111  1  0
 67112  1  0
 69113  1  0
 71114  1  0
 73115  1  0
 74116  1  0
M  END
