
     RDKit          3D

 92104  0  0  0  0  0  0  0  0999 V2000
  -12.4815    1.5508    3.2405 C   0  0  0  0  0  0  0  0  0  0  0  0
  -12.5417    1.1395    1.9079 C   0  0  0  0  0  0  0  0  0  0  0  0
  -11.4036    0.6302    1.2603 C   0  0  0  0  0  0  0  0  0  0  0  0
  -11.4465    0.2121   -0.0803 C   0  0  0  0  0  0  0  0  0  0  0  0
  -10.3064   -0.2969   -0.7265 C   0  0  0  0  0  0  0  0  0  0  0  0
  -10.3456   -0.7158   -2.0657 C   0  0  0  0  0  0  0  0  0  0  0  0
   -9.2075   -1.2245   -2.7151 C   0  0  0  0  0  0  0  0  0  0  0  0
   -9.2852   -1.6355   -4.0546 C   0  0  0  0  0  0  0  0  0  0  0  0
   -8.1696   -2.1424   -4.7145 C   0  0  0  0  0  0  0  0  0  0  0  0
   -6.9573   -2.2440   -4.0409 C   0  0  0  0  0  0  0  0  0  0  0  0
   -6.8394   -1.8414   -2.6980 C   0  0  0  0  0  0  0  0  0  0  0  0
   -5.5264   -1.9725   -2.0467 C   0  0  0  0  0  0  0  0  0  0  0  0
   -5.1288   -3.1890   -1.4799 C   0  0  0  0  0  0  0  0  0  0  0  0
   -3.8852   -3.3104   -0.8552 C   0  0  0  0  0  0  0  0  0  0  0  0
   -3.0088   -2.2171   -0.7833 C   0  0  0  0  0  0  0  0  0  0  0  0
   -1.7573   -2.3224   -0.1546 C   0  0  0  0  0  0  0  0  0  0  0  0
   -0.8803   -1.2272   -0.0797 C   0  0  0  0  0  0  0  0  0  0  0  0
    0.3712   -1.3318    0.5508 C   0  0  0  0  0  0  0  0  0  0  0  0
    1.2483   -0.2367    0.6270 C   0  0  0  0  0  0  0  0  0  0  0  0
    2.4995   -0.3415    1.2581 C   0  0  0  0  0  0  0  0  0  0  0  0
    3.3764    0.7535    1.3340 C   0  0  0  0  0  0  0  0  0  0  0  0
    4.6284    0.6487    1.9647 C   0  0  0  0  0  0  0  0  0  0  0  0
    5.5052    1.7428    2.0356 C   0  0  0  0  0  0  0  0  0  0  0  0
    6.8134    1.6148    2.6969 C   0  0  0  0  0  0  0  0  0  0  0  0
    7.9651    1.1162    2.0211 C   0  0  0  0  0  0  0  0  0  0  0  0
    7.9604    0.7097    0.6652 C   0  0  0  0  0  0  0  0  0  0  0  0
    9.1092    0.2185    0.0210 C   0  0  0  0  0  0  0  0  0  0  0  0
    9.0808   -0.1821   -1.3257 C   0  0  0  0  0  0  0  0  0  0  0  0
   10.2289   -0.6736   -1.9681 C   0  0  0  0  0  0  0  0  0  0  0  0
   10.2011   -1.0753   -3.3138 C   0  0  0  0  0  0  0  0  0  0  0  0
   11.3509   -1.5618   -3.9374 C   0  0  0  0  0  0  0  0  0  0  0  0
   12.5420   -1.6528   -3.2241 C   0  0  0  0  0  0  0  0  0  0  0  0
   12.5856   -1.2576   -1.8863 C   0  0  0  0  0  0  0  0  0  0  0  0
   11.4368   -0.7661   -1.2448 C   0  0  0  0  0  0  0  0  0  0  0  0
   11.4631   -0.3646    0.1010 C   0  0  0  0  0  0  0  0  0  0  0  0
   10.3124    0.1263    0.7414 C   0  0  0  0  0  0  0  0  0  0  0  0
   10.3352    0.5283    2.0859 C   0  0  0  0  0  0  0  0  0  0  0  0
    9.1864    1.0186    2.7300 C   0  0  0  0  0  0  0  0  0  0  0  0
    9.2478    1.4124    4.0752 C   0  0  0  0  0  0  0  0  0  0  0  0
    8.1212    1.9005    4.7301 C   0  0  0  0  0  0  0  0  0  0  0  0
    6.9148    2.0004    4.0459 C   0  0  0  0  0  0  0  0  0  0  0  0
    5.1083    2.9587    1.4671 C   0  0  0  0  0  0  0  0  0  0  0  0
    3.8669    3.0784    0.8378 C   0  0  0  0  0  0  0  0  0  0  0  0
    2.9918    1.9842    0.7636 C   0  0  0  0  0  0  0  0  0  0  0  0
    1.7412    2.0887    0.1330 C   0  0  0  0  0  0  0  0  0  0  0  0
    0.8647    0.9931    0.0579 C   0  0  0  0  0  0  0  0  0  0  0  0
   -0.3865    1.0976   -0.5728 C   0  0  0  0  0  0  0  0  0  0  0  0
   -1.2640    0.0027   -0.6486 C   0  0  0  0  0  0  0  0  0  0  0  0
   -2.5157    0.1081   -1.2788 C   0  0  0  0  0  0  0  0  0  0  0  0
   -3.3935   -0.9861   -1.3531 C   0  0  0  0  0  0  0  0  0  0  0  0
   -4.6471   -0.8801   -1.9803 C   0  0  0  0  0  0  0  0  0  0  0  0
   -7.9802   -1.3236   -2.0172 C   0  0  0  0  0  0  0  0  0  0  0  0
   -7.9589   -0.9000   -0.6664 C   0  0  0  0  0  0  0  0  0  0  0  0
   -9.0970   -0.3904   -0.0170 C   0  0  0  0  0  0  0  0  0  0  0  0
   -9.0518    0.0271    1.3243 C   0  0  0  0  0  0  0  0  0  0  0  0
  -10.1893    0.5364    1.9722 C   0  0  0  0  0  0  0  0  0  0  0  0
  -10.1444    0.9545    3.3126 C   0  0  0  0  0  0  0  0  0  0  0  0
  -11.2835    1.4584    3.9422 C   0  0  0  0  0  0  0  0  0  0  0  0
  -13.3698    1.9430    3.7286 H   0  0  0  0  0  0  0  0  0  0  0  0
  -13.4871    1.2196    1.3760 H   0  0  0  0  0  0  0  0  0  0  0  0
  -12.3832    0.2843   -0.6299 H   0  0  0  0  0  0  0  0  0  0  0  0
  -11.2834   -0.6443   -2.6142 H   0  0  0  0  0  0  0  0  0  0  0  0
  -10.2249   -1.5637   -4.5987 H   0  0  0  0  0  0  0  0  0  0  0  0
   -8.2449   -2.4567   -5.7520 H   0  0  0  0  0  0  0  0  0  0  0  0
   -6.0902   -2.6392   -4.5673 H   0  0  0  0  0  0  0  0  0  0  0  0
   -5.7929   -4.0504   -1.5172 H   0  0  0  0  0  0  0  0  0  0  0  0
   -3.6081   -4.2686   -0.4214 H   0  0  0  0  0  0  0  0  0  0  0  0
   -1.4620   -3.2733    0.2851 H   0  0  0  0  0  0  0  0  0  0  0  0
    0.6685   -2.2826    0.9900 H   0  0  0  0  0  0  0  0  0  0  0  0
    2.7974   -1.2918    1.6981 H   0  0  0  0  0  0  0  0  0  0  0  0
    4.9337   -0.2989    2.4065 H   0  0  0  0  0  0  0  0  0  0  0  0
    7.0372    0.7774    0.0912 H   0  0  0  0  0  0  0  0  0  0  0  0
    8.1484   -0.1105   -1.8831 H   0  0  0  0  0  0  0  0  0  0  0  0
    9.2787   -1.0119   -3.8870 H   0  0  0  0  0  0  0  0  0  0  0  0
   11.3150   -1.8694   -4.9792 H   0  0  0  0  0  0  0  0  0  0  0  0
   13.4386   -2.0315   -3.7073 H   0  0  0  0  0  0  0  0  0  0  0  0
   13.5261   -1.3365   -1.3457 H   0  0  0  0  0  0  0  0  0  0  0  0
   12.3948   -0.4359    0.6591 H   0  0  0  0  0  0  0  0  0  0  0  0
   11.2681    0.4577    2.6427 H   0  0  0  0  0  0  0  0  0  0  0  0
   10.1827    1.3415    4.6278 H   0  0  0  0  0  0  0  0  0  0  0  0
    8.1833    2.2016    5.7723 H   0  0  0  0  0  0  0  0  0  0  0  0
    6.0392    2.3811    4.5688 H   0  0  0  0  0  0  0  0  0  0  0  0
    5.7706    3.8213    1.5081 H   0  0  0  0  0  0  0  0  0  0  0  0
    3.5894    4.0366    0.4040 H   0  0  0  0  0  0  0  0  0  0  0  0
    1.4459    3.0393   -0.3073 H   0  0  0  0  0  0  0  0  0  0  0  0
   -0.6829    2.0485   -1.0123 H   0  0  0  0  0  0  0  0  0  0  0  0
   -2.8136    1.0587   -1.7182 H   0  0  0  0  0  0  0  0  0  0  0  0
   -4.9528    0.0680   -2.4208 H   0  0  0  0  0  0  0  0  0  0  0  0
   -7.0308   -0.9688   -0.1005 H   0  0  0  0  0  0  0  0  0  0  0  0
   -8.1144   -0.0455    1.8731 H   0  0  0  0  0  0  0  0  0  0  0  0
   -9.2166    0.8904    3.8769 H   0  0  0  0  0  0  0  0  0  0  0  0
  -11.2337    1.7783    4.9797 H   0  0  0  0  0  0  0  0  0  0  0  0
  1  2  4  0
  2  3  4  0
  3  4  4  0
  4  5  4  0
  5  6  4  0
  6  7  4  0
  7  8  4  0
  8  9  4  0
  9 10  4  0
 10 11  4  0
 11 12  1  0
 12 13  4  0
 13 14  4  0
 14 15  4  0
 15 16  4  0
 16 17  4  0
 17 18  4  0
 18 19  4  0
 19 20  4  0
 20 21  4  0
 21 22  4  0
 22 23  4  0
 23 24  1  0
 24 25  4  0
 25 26  4  0
 26 27  4  0
 27 28  4  0
 28 29  4  0
 29 30  4  0
 30 31  4  0
 31 32  4  0
 32 33  4  0
 33 34  4  0
 34 35  4  0
 35 36  4  0
 36 37  4  0
 37 38  4  0
 38 39  4  0
 39 40  4  0
 40 41  4  0
 23 42  4  0
 42 43  4  0
 43 44  4  0
 44 45  4  0
 45 46  4  0
 46 47  4  0
 47 48  4  0
 48 49  4  0
 49 50  4  0
 50 51  4  0
 11 52  4  0
 52 53  4  0
 53 54  4  0
 54 55  4  0
 55 56  4  0
 56 57  4  0
 57 58  4  0
 58  1  4  0
 56  3  4  0
 54  5  4  0
 52  7  4  0
 51 12  4  0
 50 15  4  0
 48 17  4  0
 46 19  4  0
 44 21  4  0
 41 24  4  0
 38 25  4  0
 36 27  4  0
 34 29  4  0
  1 59  1  0
  2 60  1  0
  4 61  1  0
  6 62  1  0
  8 63  1  0
  9 64  1  0
 10 65  1  0
 13 66  1  0
 14 67  1  0
 16 68  1  0
 18 69  1  0
 20 70  1  0
 22 71  1  0
 26 72  1  0
 28 73  1  0
 30 74  1  0
 31 75  1  0
 32 76  1  0
 33 77  1  0
 35 78  1  0
 37 79  1  0
 39 80  1  0
 40 81  1  0
 41 82  1  0
 42 83  1  0
 43 84  1  0
 45 85  1  0
 47 86  1  0
 49 87  1  0
 51 88  1  0
 53 89  1  0
 55 90  1  0
 57 91  1  0
 58 92  1  0
M  END
