
     RDKit          3D

 92104  0  0  0  0  0  0  0  0999 V2000
   12.6932   -2.1586   -3.0067 C   0  0  0  0  0  0  0  0  0  0  0  0
   11.5112   -2.1085   -3.7389 C   0  0  0  0  0  0  0  0  0  0  0  0
   10.3558   -1.5792   -3.1613 C   0  0  0  0  0  0  0  0  0  0  0  0
   10.3684   -1.0930   -1.8432 C   0  0  0  0  0  0  0  0  0  0  0  0
    9.2147   -0.5565   -1.2473 C   0  0  0  0  0  0  0  0  0  0  0  0
    9.2285   -0.0693    0.0712 C   0  0  0  0  0  0  0  0  0  0  0  0
    8.0751    0.4696    0.6684 C   0  0  0  0  0  0  0  0  0  0  0  0
    8.0669    0.9678    1.9937 C   0  0  0  0  0  0  0  0  0  0  0  0
    9.2775    0.9049    2.7243 C   0  0  0  0  0  0  0  0  0  0  0  0
   10.4304    0.3661    2.1276 C   0  0  0  0  0  0  0  0  0  0  0  0
   10.4222   -0.1207    0.8110 C   0  0  0  0  0  0  0  0  0  0  0  0
   11.5780   -0.6572    0.2173 C   0  0  0  0  0  0  0  0  0  0  0  0
   11.5668   -1.1439   -1.1006 C   0  0  0  0  0  0  0  0  0  0  0  0
   12.7214   -1.6796   -1.6958 C   0  0  0  0  0  0  0  0  0  0  0  0
    9.3237    1.3811    4.0436 C   0  0  0  0  0  0  0  0  0  0  0  0
    8.1927    1.9184    4.6514 C   0  0  0  0  0  0  0  0  0  0  0  0
    6.9973    1.9880    3.9445 C   0  0  0  0  0  0  0  0  0  0  0  0
    6.9119    1.5217    2.6198 C   0  0  0  0  0  0  0  0  0  0  0  0
    5.6176    1.6308    1.9284 C   0  0  0  0  0  0  0  0  0  0  0  0
    5.3232    2.7468    1.1362 C   0  0  0  0  0  0  0  0  0  0  0  0
    4.0960    2.8475    0.4766 C   0  0  0  0  0  0  0  0  0  0  0  0
    3.1325    1.8345    0.5955 C   0  0  0  0  0  0  0  0  0  0  0  0
    1.8948    1.9203   -0.0630 C   0  0  0  0  0  0  0  0  0  0  0  0
    0.9298    0.9057    0.0552 C   0  0  0  0  0  0  0  0  0  0  0  0
   -0.3087    0.9904   -0.6033 C   0  0  0  0  0  0  0  0  0  0  0  0
   -1.2733   -0.0247   -0.4859 C   0  0  0  0  0  0  0  0  0  0  0  0
   -2.5112    0.0599   -1.1456 C   0  0  0  0  0  0  0  0  0  0  0  0
   -3.4746   -0.9558   -1.0292 C   0  0  0  0  0  0  0  0  0  0  0  0
   -4.7117   -0.8726   -1.6917 C   0  0  0  0  0  0  0  0  0  0  0  0
   -5.6738   -1.8880   -1.5742 C   0  0  0  0  0  0  0  0  0  0  0  0
   -6.9583   -1.7899   -2.2850 C   0  0  0  0  0  0  0  0  0  0  0  0
   -7.0609   -2.3980   -3.5497 C   0  0  0  0  0  0  0  0  0  0  0  0
   -8.2432   -2.3389   -4.2787 C   0  0  0  0  0  0  0  0  0  0  0  0
   -9.3443   -1.6693   -3.7542 C   0  0  0  0  0  0  0  0  0  0  0  0
   -9.2813   -1.0513   -2.4962 C   0  0  0  0  0  0  0  0  0  0  0  0
  -10.4051   -0.3803   -1.9849 C   0  0  0  0  0  0  0  0  0  0  0  0
  -10.3817    0.2488   -0.7307 C   0  0  0  0  0  0  0  0  0  0  0  0
  -11.5083    0.9197   -0.2241 C   0  0  0  0  0  0  0  0  0  0  0  0
  -11.4830    1.5485    1.0316 C   0  0  0  0  0  0  0  0  0  0  0  0
  -12.6079    2.2200    1.5394 C   0  0  0  0  0  0  0  0  0  0  0  0
  -12.5658    2.8394    2.7894 C   0  0  0  0  0  0  0  0  0  0  0  0
  -11.3998    2.7955    3.5471 C   0  0  0  0  0  0  0  0  0  0  0  0
  -10.2741    2.1322    3.0562 C   0  0  0  0  0  0  0  0  0  0  0  0
  -10.3007    1.5040    1.8000 C   0  0  0  0  0  0  0  0  0  0  0  0
   -9.1765    0.8324    1.2912 C   0  0  0  0  0  0  0  0  0  0  0  0
   -9.2033    0.2046    0.0339 C   0  0  0  0  0  0  0  0  0  0  0  0
   -8.0785   -0.4671   -0.4779 C   0  0  0  0  0  0  0  0  0  0  0  0
   -8.0844   -1.1045   -1.7421 C   0  0  0  0  0  0  0  0  0  0  0  0
   -5.3800   -3.0018   -0.7789 C   0  0  0  0  0  0  0  0  0  0  0  0
   -4.1547   -3.0990   -0.1147 C   0  0  0  0  0  0  0  0  0  0  0  0
   -3.1931   -2.0839   -0.2315 C   0  0  0  0  0  0  0  0  0  0  0  0
   -1.9557   -2.1682    0.4278 C   0  0  0  0  0  0  0  0  0  0  0  0
   -0.9923   -1.1522    0.3100 C   0  0  0  0  0  0  0  0  0  0  0  0
    0.2459   -1.2369    0.9685 C   0  0  0  0  0  0  0  0  0  0  0  0
    1.2103   -0.2219    0.8512 C   0  0  0  0  0  0  0  0  0  0  0  0
    2.4483   -0.3080    1.5103 C   0  0  0  0  0  0  0  0  0  0  0  0
    3.4133    0.7059    1.3928 C   0  0  0  0  0  0  0  0  0  0  0  0
    4.6527    0.6190    2.0509 C   0  0  0  0  0  0  0  0  0  0  0  0
   13.5942   -2.5701   -3.4542 H   0  0  0  0  0  0  0  0  0  0  0  0
   11.4865   -2.4807   -4.7597 H   0  0  0  0  0  0  0  0  0  0  0  0
    9.4413   -1.5484   -3.7495 H   0  0  0  0  0  0  0  0  0  0  0  0
    8.2895   -0.5168   -1.8197 H   0  0  0  0  0  0  0  0  0  0  0  0
    7.1580    0.5004    0.0817 H   0  0  0  0  0  0  0  0  0  0  0  0
   11.3557    0.3247    2.7002 H   0  0  0  0  0  0  0  0  0  0  0  0
   12.5023   -0.6963    0.7905 H   0  0  0  0  0  0  0  0  0  0  0  0
   13.6548   -1.7274   -1.1395 H   0  0  0  0  0  0  0  0  0  0  0  0
   10.2501    1.3365    4.6128 H   0  0  0  0  0  0  0  0  0  0  0  0
    8.2437    2.2835    5.6737 H   0  0  0  0  0  0  0  0  0  0  0  0
    6.1193    2.4126    4.4285 H   0  0  0  0  0  0  0  0  0  0  0  0
    6.0558    3.5439    1.0250 H   0  0  0  0  0  0  0  0  0  0  0  0
    3.8998    3.7264   -0.1334 H   0  0  0  0  0  0  0  0  0  0  0  0
    1.6802    2.7922   -0.6785 H   0  0  0  0  0  0  0  0  0  0  0  0
   -0.5259    1.8616   -1.2190 H   0  0  0  0  0  0  0  0  0  0  0  0
   -2.7290    0.9308   -1.7616 H   0  0  0  0  0  0  0  0  0  0  0  0
   -4.9357   -0.0053   -2.3114 H   0  0  0  0  0  0  0  0  0  0  0  0
   -6.2047   -2.9222   -3.9711 H   0  0  0  0  0  0  0  0  0  0  0  0
   -8.3062   -2.8129   -5.2545 H   0  0  0  0  0  0  0  0  0  0  0  0
  -10.2605   -1.6333   -4.3403 H   0  0  0  0  0  0  0  0  0  0  0  0
  -11.3190   -0.3464   -2.5758 H   0  0  0  0  0  0  0  0  0  0  0  0
  -12.4204    0.9534   -0.8171 H   0  0  0  0  0  0  0  0  0  0  0  0
  -13.5285    2.2649    0.9618 H   0  0  0  0  0  0  0  0  0  0  0  0
  -13.4437    3.3550    3.1699 H   0  0  0  0  0  0  0  0  0  0  0  0
  -11.3641    3.2765    4.5209 H   0  0  0  0  0  0  0  0  0  0  0  0
   -9.3718    2.1087    3.6633 H   0  0  0  0  0  0  0  0  0  0  0  0
   -8.2641    0.7977    1.8841 H   0  0  0  0  0  0  0  0  0  0  0  0
   -7.1736   -0.4935    0.1279 H   0  0  0  0  0  0  0  0  0  0  0  0
   -6.1093   -3.8025   -0.6720 H   0  0  0  0  0  0  0  0  0  0  0  0
   -3.9574   -3.9776    0.4955 H   0  0  0  0  0  0  0  0  0  0  0  0
   -1.7386   -3.0402    1.0422 H   0  0  0  0  0  0  0  0  0  0  0  0
    0.4635   -2.1089    1.5829 H   0  0  0  0  0  0  0  0  0  0  0  0
    2.6654   -1.1795    2.1257 H   0  0  0  0  0  0  0  0  0  0  0  0
    4.8783   -0.2513    2.6657 H   0  0  0  0  0  0  0  0  0  0  0  0
  1  2  4  0
  2  3  4  0
  3  4  4  0
  4  5  4  0
  5  6  4  0
  6  7  4  0
  7  8  4  0
  8  9  4  0
  9 10  4  0
 10 11  4  0
 11 12  4  0
 12 13  4  0
 13 14  4  0
  9 15  4  0
 15 16  4  0
 16 17  4  0
 17 18  4  0
 18 19  1  0
 19 20  4  0
 20 21  4  0
 21 22  4  0
 22 23  4  0
 23 24  4  0
 24 25  4  0
 25 26  4  0
 26 27  4  0
 27 28  4  0
 28 29  4  0
 29 30  4  0
 30 31  1  0
 31 32  4  0
 32 33  4  0
 33 34  4  0
 34 35  4  0
 35 36  4  0
 36 37  4  0
 37 38  4  0
 38 39  4  0
 39 40  4  0
 40 41  4  0
 41 42  4  0
 42 43  4  0
 43 44  4  0
 44 45  4  0
 45 46  4  0
 46 47  4  0
 47 48  4  0
 30 49  4  0
 49 50  4  0
 50 51  4  0
 51 52  4  0
 52 53  4  0
 53 54  4  0
 54 55  4  0
 55 56  4  0
 56 57  4  0
 57 58  4  0
 14  1  4  0
 58 19  4  0
 13  4  4  0
 57 22  4  0
 11  6  4  0
 55 24  4  0
 18  8  4  0
 53 26  4  0
 51 28  4  0
 48 31  4  0
 48 35  4  0
 46 37  4  0
 44 39  4  0
  1 59  1  0
  2 60  1  0
  3 61  1  0
  5 62  1  0
  7 63  1  0
 10 64  1  0
 12 65  1  0
 14 66  1  0
 15 67  1  0
 16 68  1  0
 17 69  1  0
 20 70  1  0
 21 71  1  0
 23 72  1  0
 25 73  1  0
 27 74  1  0
 29 75  1  0
 32 76  1  0
 33 77  1  0
 34 78  1  0
 36 79  1  0
 38 80  1  0
 40 81  1  0
 41 82  1  0
 42 83  1  0
 43 84  1  0
 45 85  1  0
 47 86  1  0
 49 87  1  0
 50 88  1  0
 52 89  1  0
 54 90  1  0
 56 91  1  0
 58 92  1  0
M  END
