
     RDKit          3D

 92104  0  0  0  0  0  0  0  0999 V2000
  -17.1745    0.9466   -0.7415 C   0  0  0  0  0  0  0  0  0  0  0  0
  -16.8141    0.9365   -2.0853 C   0  0  0  0  0  0  0  0  0  0  0  0
  -15.4832    0.7250   -2.4481 C   0  0  0  0  0  0  0  0  0  0  0  0
  -14.4955    0.5206   -1.4704 C   0  0  0  0  0  0  0  0  0  0  0  0
  -13.1519    0.3060   -1.8193 C   0  0  0  0  0  0  0  0  0  0  0  0
  -12.1645    0.1011   -0.8409 C   0  0  0  0  0  0  0  0  0  0  0  0
  -10.8208   -0.1147   -1.1906 C   0  0  0  0  0  0  0  0  0  0  0  0
   -9.8325   -0.3211   -0.2137 C   0  0  0  0  0  0  0  0  0  0  0  0
   -8.4875   -0.5392   -0.5641 C   0  0  0  0  0  0  0  0  0  0  0  0
   -7.4943   -0.7450    0.4084 C   0  0  0  0  0  0  0  0  0  0  0  0
   -6.0930   -0.9747    0.0231 C   0  0  0  0  0  0  0  0  0  0  0  0
   -5.7469   -2.0109   -0.8546 C   0  0  0  0  0  0  0  0  0  0  0  0
   -4.4150   -2.2313   -1.2177 C   0  0  0  0  0  0  0  0  0  0  0  0
   -3.3901   -1.4183   -0.7129 C   0  0  0  0  0  0  0  0  0  0  0  0
   -2.0471   -1.6268   -1.0673 C   0  0  0  0  0  0  0  0  0  0  0  0
   -1.0210   -0.8110   -0.5617 C   0  0  0  0  0  0  0  0  0  0  0  0
    0.3226   -1.0196   -0.9156 C   0  0  0  0  0  0  0  0  0  0  0  0
    1.3495   -0.2041   -0.4110 C   0  0  0  0  0  0  0  0  0  0  0  0
    2.6929   -0.4140   -0.7657 C   0  0  0  0  0  0  0  0  0  0  0  0
    3.7206    0.4010   -0.2622 C   0  0  0  0  0  0  0  0  0  0  0  0
    5.0658    0.1911   -0.6175 C   0  0  0  0  0  0  0  0  0  0  0  0
    6.0983    1.0011   -0.1149 C   0  0  0  0  0  0  0  0  0  0  0  0
    7.4996    0.7659   -0.4971 C   0  0  0  0  0  0  0  0  0  0  0  0
    8.4886    0.5509    0.4778 C   0  0  0  0  0  0  0  0  0  0  0  0
    9.8332    0.3248    0.1306 C   0  0  0  0  0  0  0  0  0  0  0  0
   10.8174    0.1079    1.1094 C   0  0  0  0  0  0  0  0  0  0  0  0
   12.1603   -0.1172    0.7622 C   0  0  0  0  0  0  0  0  0  0  0  0
   13.1439   -0.3337    1.7421 C   0  0  0  0  0  0  0  0  0  0  0  0
   14.4864   -0.5585    1.3954 C   0  0  0  0  0  0  0  0  0  0  0  0
   15.4704   -0.7749    2.3743 C   0  0  0  0  0  0  0  0  0  0  0  0
   16.8002   -0.9969    2.0134 C   0  0  0  0  0  0  0  0  0  0  0  0
   17.1634   -1.0055    0.6703 C   0  0  0  0  0  0  0  0  0  0  0  0
   16.1971   -0.7921   -0.3140 C   0  0  0  0  0  0  0  0  0  0  0  0
   14.8548   -0.5672    0.0333 C   0  0  0  0  0  0  0  0  0  0  0  0
   13.8708   -0.3508   -0.9455 C   0  0  0  0  0  0  0  0  0  0  0  0
   12.5282   -0.1260   -0.5976 C   0  0  0  0  0  0  0  0  0  0  0  0
   11.5443    0.0900   -1.5770 C   0  0  0  0  0  0  0  0  0  0  0  0
   10.2021    0.3144   -1.2293 C   0  0  0  0  0  0  0  0  0  0  0  0
    9.2194    0.5286   -2.2061 C   0  0  0  0  0  0  0  0  0  0  0  0
    7.8876    0.7501   -1.8435 C   0  0  0  0  0  0  0  0  0  0  0  0
    5.7539    2.0391    0.7611 C   0  0  0  0  0  0  0  0  0  0  0  0
    4.4222    2.2627    1.1234 C   0  0  0  0  0  0  0  0  0  0  0  0
    3.3956    1.4510    0.6194 C   0  0  0  0  0  0  0  0  0  0  0  0
    2.0525    1.6613    0.9738 C   0  0  0  0  0  0  0  0  0  0  0  0
    1.0250    0.8461    0.4693 C   0  0  0  0  0  0  0  0  0  0  0  0
   -0.3190    1.0546    0.8233 C   0  0  0  0  0  0  0  0  0  0  0  0
   -1.3460    0.2388    0.3189 C   0  0  0  0  0  0  0  0  0  0  0  0
   -2.6900    0.4468    0.6736 C   0  0  0  0  0  0  0  0  0  0  0  0
   -3.7166   -0.3695    0.1696 C   0  0  0  0  0  0  0  0  0  0  0  0
   -5.0620   -0.1626    0.5255 C   0  0  0  0  0  0  0  0  0  0  0  0
   -7.8783   -0.7271    1.7560 C   0  0  0  0  0  0  0  0  0  0  0  0
   -9.2105   -0.5128    2.1217 C   0  0  0  0  0  0  0  0  0  0  0  0
  -10.1978   -0.3088    1.1471 C   0  0  0  0  0  0  0  0  0  0  0  0
  -11.5409   -0.0930    1.4974 C   0  0  0  0  0  0  0  0  0  0  0  0
  -12.5292    0.1117    0.5198 C   0  0  0  0  0  0  0  0  0  0  0  0
  -13.8730    0.3266    0.8699 C   0  0  0  0  0  0  0  0  0  0  0  0
  -14.8609    0.5310   -0.1075 C   0  0  0  0  0  0  0  0  0  0  0  0
  -16.2045    0.7452    0.2417 C   0  0  0  0  0  0  0  0  0  0  0  0
  -18.2104    1.1112   -0.4567 H   0  0  0  0  0  0  0  0  0  0  0  0
  -17.5678    1.0932   -2.8525 H   0  0  0  0  0  0  0  0  0  0  0  0
  -15.2212    0.7207   -3.5038 H   0  0  0  0  0  0  0  0  0  0  0  0
  -12.8705    0.2983   -2.8707 H   0  0  0  0  0  0  0  0  0  0  0  0
  -10.5391   -0.1226   -2.2421 H   0  0  0  0  0  0  0  0  0  0  0  0
   -8.2044   -0.5381   -1.6158 H   0  0  0  0  0  0  0  0  0  0  0  0
   -6.5169   -2.6675   -1.2555 H   0  0  0  0  0  0  0  0  0  0  0  0
   -4.1854   -3.0486   -1.8979 H   0  0  0  0  0  0  0  0  0  0  0  0
   -1.7960   -2.4379   -1.7485 H   0  0  0  0  0  0  0  0  0  0  0  0
    0.5737   -1.8313   -1.5962 H   0  0  0  0  0  0  0  0  0  0  0  0
    2.9435   -1.2263   -1.4457 H   0  0  0  0  0  0  0  0  0  0  0  0
    5.3175   -0.6277   -1.2902 H   0  0  0  0  0  0  0  0  0  0  0  0
    8.2023    0.5481    1.5286 H   0  0  0  0  0  0  0  0  0  0  0  0
   10.5330    0.1142    2.1602 H   0  0  0  0  0  0  0  0  0  0  0  0
   12.8599   -0.3272    2.7929 H   0  0  0  0  0  0  0  0  0  0  0  0
   15.2063   -0.7722    3.4295 H   0  0  0  0  0  0  0  0  0  0  0  0
   17.5506   -1.1631    2.7817 H   0  0  0  0  0  0  0  0  0  0  0  0
   18.1982   -1.1783    0.3868 H   0  0  0  0  0  0  0  0  0  0  0  0
   16.5002   -0.8027   -1.3585 H   0  0  0  0  0  0  0  0  0  0  0  0
   14.1555   -0.3578   -1.9960 H   0  0  0  0  0  0  0  0  0  0  0  0
   11.8277    0.0829   -2.6279 H   0  0  0  0  0  0  0  0  0  0  0  0
    9.4821    0.5278   -3.2617 H   0  0  0  0  0  0  0  0  0  0  0  0
    7.1522    0.9241   -2.6266 H   0  0  0  0  0  0  0  0  0  0  0  0
    6.5247    2.6946    1.1620 H   0  0  0  0  0  0  0  0  0  0  0  0
    4.1947    3.0810    1.8030 H   0  0  0  0  0  0  0  0  0  0  0  0
    1.8031    2.4733    1.6545 H   0  0  0  0  0  0  0  0  0  0  0  0
   -0.5700    1.8665    1.5038 H   0  0  0  0  0  0  0  0  0  0  0  0
   -2.9419    1.2583    1.3542 H   0  0  0  0  0  0  0  0  0  0  0  0
   -5.3150    0.6548    1.1994 H   0  0  0  0  0  0  0  0  0  0  0  0
   -7.1391   -0.8941    2.5373 H   0  0  0  0  0  0  0  0  0  0  0  0
   -9.4701   -0.5103    3.1781 H   0  0  0  0  0  0  0  0  0  0  0  0
  -11.8220   -0.0844    2.5490 H   0  0  0  0  0  0  0  0  0  0  0  0
  -14.1555    0.3349    1.9210 H   0  0  0  0  0  0  0  0  0  0  0  0
  -16.5060    0.7567    1.2867 H   0  0  0  0  0  0  0  0  0  0  0  0
  1  2  4  0
  2  3  4  0
  3  4  4  0
  4  5  4  0
  5  6  4  0
  6  7  4  0
  7  8  4  0
  8  9  4  0
  9 10  4  0
 10 11  1  0
 11 12  4  0
 12 13  4  0
 13 14  4  0
 14 15  4  0
 15 16  4  0
 16 17  4  0
 17 18  4  0
 18 19  4  0
 19 20  4  0
 20 21  4  0
 21 22  4  0
 22 23  1  0
 23 24  4  0
 24 25  4  0
 25 26  4  0
 26 27  4  0
 27 28  4  0
 28 29  4  0
 29 30  4  0
 30 31  4  0
 31 32  4  0
 32 33  4  0
 33 34  4  0
 34 35  4  0
 35 36  4  0
 36 37  4  0
 37 38  4  0
 38 39  4  0
 39 40  4  0
 22 41  4  0
 41 42  4  0
 42 43  4  0
 43 44  4  0
 44 45  4  0
 45 46  4  0
 46 47  4  0
 47 48  4  0
 48 49  4  0
 49 50  4  0
 10 51  4  0
 51 52  4  0
 52 53  4  0
 53 54  4  0
 54 55  4  0
 55 56  4  0
 56 57  4  0
 57 58  4  0
 58  1  4  0
 57  4  4  0
 55  6  4  0
 53  8  4  0
 50 11  4  0
 49 14  4  0
 47 16  4  0
 45 18  4  0
 43 20  4  0
 40 23  4  0
 38 25  4  0
 36 27  4  0
 34 29  4  0
  1 59  1  0
  2 60  1  0
  3 61  1  0
  5 62  1  0
  7 63  1  0
  9 64  1  0
 12 65  1  0
 13 66  1  0
 15 67  1  0
 17 68  1  0
 19 69  1  0
 21 70  1  0
 24 71  1  0
 26 72  1  0
 28 73  1  0
 30 74  1  0
 31 75  1  0
 32 76  1  0
 33 77  1  0
 35 78  1  0
 37 79  1  0
 39 80  1  0
 40 81  1  0
 41 82  1  0
 42 83  1  0
 44 84  1  0
 46 85  1  0
 48 86  1  0
 50 87  1  0
 51 88  1  0
 52 89  1  0
 54 90  1  0
 56 91  1  0
 58 92  1  0
M  END
