
     RDKit          3D

104118  0  0  0  0  0  0  0  0999 V2000
  -14.2697    0.9470   -3.6968 C   0  0  0  0  0  0  0  0  0  0  0  0
  -13.1625    1.4627   -4.3633 C   0  0  0  0  0  0  0  0  0  0  0  0
  -11.9210    1.5000   -3.7267 C   0  0  0  0  0  0  0  0  0  0  0  0
  -11.7713    1.0215   -2.4144 C   0  0  0  0  0  0  0  0  0  0  0  0
  -10.5287    1.0518   -1.7597 C   0  0  0  0  0  0  0  0  0  0  0  0
  -10.3803    0.5733   -0.4468 C   0  0  0  0  0  0  0  0  0  0  0  0
   -9.1381    0.6039    0.2087 C   0  0  0  0  0  0  0  0  0  0  0  0
   -8.9892    0.1255    1.5217 C   0  0  0  0  0  0  0  0  0  0  0  0
   -7.7468    0.1561    2.1785 C   0  0  0  0  0  0  0  0  0  0  0  0
   -7.5735   -0.3224    3.4995 C   0  0  0  0  0  0  0  0  0  0  0  0
   -8.7110   -0.8416    4.1625 C   0  0  0  0  0  0  0  0  0  0  0  0
   -9.9534   -0.8714    3.5062 C   0  0  0  0  0  0  0  0  0  0  0  0
  -10.1070   -0.3953    2.1947 C   0  0  0  0  0  0  0  0  0  0  0  0
  -11.3505   -0.4265    1.5405 C   0  0  0  0  0  0  0  0  0  0  0  0
  -11.5010    0.0514    0.2278 C   0  0  0  0  0  0  0  0  0  0  0  0
  -12.7444    0.0203   -0.4262 C   0  0  0  0  0  0  0  0  0  0  0  0
  -12.8942    0.4986   -1.7385 C   0  0  0  0  0  0  0  0  0  0  0  0
  -14.1370    0.4679   -2.3927 C   0  0  0  0  0  0  0  0  0  0  0  0
   -8.5954   -1.3247    5.4747 C   0  0  0  0  0  0  0  0  0  0  0  0
   -7.3738   -1.3021    6.1410 C   0  0  0  0  0  0  0  0  0  0  0  0
   -6.2479   -0.7956    5.5011 C   0  0  0  0  0  0  0  0  0  0  0  0
   -6.3237   -0.3039    4.1854 C   0  0  0  0  0  0  0  0  0  0  0  0
   -5.0940    0.2119    3.5640 C   0  0  0  0  0  0  0  0  0  0  0  0
   -4.6865    1.5342    3.7757 C   0  0  0  0  0  0  0  0  0  0  0  0
   -3.5251    2.0257    3.1749 C   0  0  0  0  0  0  0  0  0  0  0  0
   -2.7430    1.2054    2.3476 C   0  0  0  0  0  0  0  0  0  0  0  0
   -1.5755    1.6856    1.7318 C   0  0  0  0  0  0  0  0  0  0  0  0
   -0.7945    0.8646    0.9006 C   0  0  0  0  0  0  0  0  0  0  0  0
    0.3728    1.3445    0.2829 C   0  0  0  0  0  0  0  0  0  0  0  0
    1.1531    0.5242   -0.5495 C   0  0  0  0  0  0  0  0  0  0  0  0
    2.3201    1.0046   -1.1673 C   0  0  0  0  0  0  0  0  0  0  0  0
    3.0995    0.1842   -1.9997 C   0  0  0  0  0  0  0  0  0  0  0  0
    4.2670    0.6652   -2.6173 C   0  0  0  0  0  0  0  0  0  0  0  0
    5.0475   -0.1563   -3.4458 C   0  0  0  0  0  0  0  0  0  0  0  0
    6.2674    0.3640   -4.0830 C   0  0  0  0  0  0  0  0  0  0  0  0
    6.1643    0.8826   -5.3867 C   0  0  0  0  0  0  0  0  0  0  0  0
    7.2781    1.3946   -6.0431 C   0  0  0  0  0  0  0  0  0  0  0  0
    8.5149    1.3965   -5.4051 C   0  0  0  0  0  0  0  0  0  0  0  0
    8.6578    0.8871   -4.1055 C   0  0  0  0  0  0  0  0  0  0  0  0
    9.9155    0.8976   -3.4781 C   0  0  0  0  0  0  0  0  0  0  0  0
   10.0970    0.3956   -2.1800 C   0  0  0  0  0  0  0  0  0  0  0  0
   11.3558    0.4080   -1.5549 C   0  0  0  0  0  0  0  0  0  0  0  0
   11.5348   -0.0957   -0.2554 C   0  0  0  0  0  0  0  0  0  0  0  0
   12.7934   -0.0833    0.3696 C   0  0  0  0  0  0  0  0  0  0  0  0
   12.9714   -0.5874    1.6688 C   0  0  0  0  0  0  0  0  0  0  0  0
   14.2292   -0.5755    2.2944 C   0  0  0  0  0  0  0  0  0  0  0  0
   14.3895   -1.0802    3.5858 C   0  0  0  0  0  0  0  0  0  0  0  0
   13.2953   -1.6029    4.2680 C   0  0  0  0  0  0  0  0  0  0  0  0
   12.0391   -1.6217    3.6598 C   0  0  0  0  0  0  0  0  0  0  0  0
   11.8618   -1.1174    2.3607 C   0  0  0  0  0  0  0  0  0  0  0  0
   10.6042   -1.1291    1.7350 C   0  0  0  0  0  0  0  0  0  0  0  0
   10.4274   -0.6248    0.4353 C   0  0  0  0  0  0  0  0  0  0  0  0
    9.1698   -0.6364   -0.1912 C   0  0  0  0  0  0  0  0  0  0  0  0
    8.9921   -0.1319   -1.4909 C   0  0  0  0  0  0  0  0  0  0  0  0
    7.7340   -0.1426   -2.1186 C   0  0  0  0  0  0  0  0  0  0  0  0
    7.5328    0.3617   -3.4260 C   0  0  0  0  0  0  0  0  0  0  0  0
    4.6388   -1.4782   -3.6570 C   0  0  0  0  0  0  0  0  0  0  0  0
    3.4799   -1.9702   -3.0514 C   0  0  0  0  0  0  0  0  0  0  0  0
    2.7017   -1.1505   -2.2199 C   0  0  0  0  0  0  0  0  0  0  0  0
    1.5351   -1.6303   -1.6020 C   0  0  0  0  0  0  0  0  0  0  0  0
    0.7561   -0.8090   -0.7694 C   0  0  0  0  0  0  0  0  0  0  0  0
   -0.4109   -1.2891   -0.1513 C   0  0  0  0  0  0  0  0  0  0  0  0
   -1.1908   -0.4689    0.6810 C   0  0  0  0  0  0  0  0  0  0  0  0
   -2.3577   -0.9502    1.2981 C   0  0  0  0  0  0  0  0  0  0  0  0
   -3.1388   -0.1300    2.1284 C   0  0  0  0  0  0  0  0  0  0  0  0
   -4.3078   -0.6112    2.7425 C   0  0  0  0  0  0  0  0  0  0  0  0
  -15.2374    0.9170   -4.1907 H   0  0  0  0  0  0  0  0  0  0  0  0
  -13.2635    1.8363   -5.3790 H   0  0  0  0  0  0  0  0  0  0  0  0
  -11.0674    1.9068   -4.2643 H   0  0  0  0  0  0  0  0  0  0  0  0
   -9.6626    1.4553   -2.2811 H   0  0  0  0  0  0  0  0  0  0  0  0
   -8.2709    1.0074   -0.3116 H   0  0  0  0  0  0  0  0  0  0  0  0
   -6.8916    0.5665    1.6433 H   0  0  0  0  0  0  0  0  0  0  0  0
  -10.8207   -1.2737    4.0272 H   0  0  0  0  0  0  0  0  0  0  0  0
  -12.2163   -0.8296    2.0627 H   0  0  0  0  0  0  0  0  0  0  0  0
  -13.6109   -0.3829    0.0947 H   0  0  0  0  0  0  0  0  0  0  0  0
  -15.0140    0.0686   -1.8882 H   0  0  0  0  0  0  0  0  0  0  0  0
   -9.4646   -1.7255    5.9925 H   0  0  0  0  0  0  0  0  0  0  0  0
   -7.2993   -1.6796    7.1572 H   0  0  0  0  0  0  0  0  0  0  0  0
   -5.2969   -0.7854    6.0311 H   0  0  0  0  0  0  0  0  0  0  0  0
   -5.2795    2.1925    4.4077 H   0  0  0  0  0  0  0  0  0  0  0  0
   -3.2382    3.0590    3.3571 H   0  0  0  0  0  0  0  0  0  0  0  0
   -1.2701    2.7166    1.9016 H   0  0  0  0  0  0  0  0  0  0  0  0
    0.6787    2.3755    0.4522 H   0  0  0  0  0  0  0  0  0  0  0  0
    2.6282    2.0350   -0.9979 H   0  0  0  0  0  0  0  0  0  0  0  0
    4.5809    1.6951   -2.4521 H   0  0  0  0  0  0  0  0  0  0  0  0
    5.2011    0.8886   -5.8943 H   0  0  0  0  0  0  0  0  0  0  0  0
    7.1828    1.7926   -7.0498 H   0  0  0  0  0  0  0  0  0  0  0  0
    9.3745    1.8021   -5.9351 H   0  0  0  0  0  0  0  0  0  0  0  0
   10.7728    1.3053   -4.0116 H   0  0  0  0  0  0  0  0  0  0  0  0
   12.2114    0.8170   -2.0894 H   0  0  0  0  0  0  0  0  0  0  0  0
   13.6496    0.3254   -0.1638 H   0  0  0  0  0  0  0  0  0  0  0  0
   15.0964   -0.1711    1.7772 H   0  0  0  0  0  0  0  0  0  0  0  0
   15.3685   -1.0646    4.0574 H   0  0  0  0  0  0  0  0  0  0  0  0
   13.4176   -1.9965    5.2736 H   0  0  0  0  0  0  0  0  0  0  0  0
   11.1959   -2.0344    4.2092 H   0  0  0  0  0  0  0  0  0  0  0  0
    9.7483   -1.5382    2.2689 H   0  0  0  0  0  0  0  0  0  0  0  0
    8.3129   -1.0453    0.3418 H   0  0  0  0  0  0  0  0  0  0  0  0
    6.8885   -0.5571   -1.5711 H   0  0  0  0  0  0  0  0  0  0  0  0
    5.2268   -2.1349   -4.2954 H   0  0  0  0  0  0  0  0  0  0  0  0
    3.1900   -3.0024   -3.2360 H   0  0  0  0  0  0  0  0  0  0  0  0
    1.2277   -2.6606   -1.7720 H   0  0  0  0  0  0  0  0  0  0  0  0
   -0.7174   -2.3198   -0.3213 H   0  0  0  0  0  0  0  0  0  0  0  0
   -2.6640   -1.9811    1.1286 H   0  0  0  0  0  0  0  0  0  0  0  0
   -4.6199   -1.6415    2.5768 H   0  0  0  0  0  0  0  0  0  0  0  0
  1  2  4  0
  2  3  4  0
  3  4  4  0
  4  5  4  0
  5  6  4  0
  6  7  4  0
  7  8  4  0
  8  9  4  0
  9 10  4  0
 10 11  4  0
 11 12  4  0
 12 13  4  0
 13 14  4  0
 14 15  4  0
 15 16  4  0
 16 17  4  0
 17 18  4  0
 11 19  4  0
 19 20  4  0
 20 21  4  0
 21 22  4  0
 22 23  1  0
 23 24  4  0
 24 25  4  0
 25 26  4  0
 26 27  4  0
 27 28  4  0
 28 29  4  0
 29 30  4  0
 30 31  4  0
 31 32  4  0
 32 33  4  0
 33 34  4  0
 34 35  1  0
 35 36  4  0
 36 37  4  0
 37 38  4  0
 38 39  4  0
 39 40  4  0
 40 41  4  0
 41 42  4  0
 42 43  4  0
 43 44  4  0
 44 45  4  0
 45 46  4  0
 46 47  4  0
 47 48  4  0
 48 49  4  0
 49 50  4  0
 50 51  4  0
 51 52  4  0
 52 53  4  0
 53 54  4  0
 54 55  4  0
 55 56  4  0
 34 57  4  0
 57 58  4  0
 58 59  4  0
 59 60  4  0
 60 61  4  0
 61 62  4  0
 62 63  4  0
 63 64  4  0
 64 65  4  0
 65 66  4  0
 18  1  4  0
 66 23  4  0
 17  4  4  0
 65 26  4  0
 15  6  4  0
 63 28  4  0
 13  8  4  0
 61 30  4  0
 22 10  4  0
 59 32  4  0
 56 35  4  0
 56 39  4  0
 54 41  4  0
 52 43  4  0
 50 45  4  0
  1 67  1  0
  2 68  1  0
  3 69  1  0
  5 70  1  0
  7 71  1  0
  9 72  1  0
 12 73  1  0
 14 74  1  0
 16 75  1  0
 18 76  1  0
 19 77  1  0
 20 78  1  0
 21 79  1  0
 24 80  1  0
 25 81  1  0
 27 82  1  0
 29 83  1  0
 31 84  1  0
 33 85  1  0
 36 86  1  0
 37 87  1  0
 38 88  1  0
 40 89  1  0
 42 90  1  0
 44 91  1  0
 46 92  1  0
 47 93  1  0
 48 94  1  0
 49 95  1  0
 51 96  1  0
 53 97  1  0
 55 98  1  0
 57 99  1  0
 58100  1  0
 60101  1  0
 62102  1  0
 64103  1  0
 66104  1  0
M  END
