
     RDKit          3D

104118  0  0  0  0  0  0  0  0999 V2000
    9.8633   -5.9433   -1.1276 C   0  0  0  0  0  0  0  0  0  0  0  0
    8.5401   -5.8933   -1.5543 C   0  0  0  0  0  0  0  0  0  0  0  0
    7.8119   -4.7095   -1.4251 C   0  0  0  0  0  0  0  0  0  0  0  0
    8.3984   -3.5605   -0.8675 C   0  0  0  0  0  0  0  0  0  0  0  0
    7.6817   -2.3584   -0.7301 C   0  0  0  0  0  0  0  0  0  0  0  0
    8.2514   -1.1850   -0.1721 C   0  0  0  0  0  0  0  0  0  0  0  0
    9.5930   -1.2616    0.2556 C   0  0  0  0  0  0  0  0  0  0  0  0
   10.3140   -2.4618    0.1203 C   0  0  0  0  0  0  0  0  0  0  0  0
    9.7359   -3.6120   -0.4360 C   0  0  0  0  0  0  0  0  0  0  0  0
   10.4584   -4.8099   -0.5715 C   0  0  0  0  0  0  0  0  0  0  0  0
   10.2093   -0.1363    0.8171 C   0  0  0  0  0  0  0  0  0  0  0  0
    9.5336    1.0805    0.9718 C   0  0  0  0  0  0  0  0  0  0  0  0
   10.1953    2.1832    1.5420 C   0  0  0  0  0  0  0  0  0  0  0  0
    9.5562    3.4197    1.7143 C   0  0  0  0  0  0  0  0  0  0  0  0
   10.2185    4.5204    2.2843 C   0  0  0  0  0  0  0  0  0  0  0  0
    9.5634    5.7421    2.4466 C   0  0  0  0  0  0  0  0  0  0  0  0
    8.2396    5.8781    2.0413 C   0  0  0  0  0  0  0  0  0  0  0  0
    7.5707    4.7926    1.4736 C   0  0  0  0  0  0  0  0  0  0  0  0
    8.2182    3.5570    1.3043 C   0  0  0  0  0  0  0  0  0  0  0  0
    7.5615    2.4522    0.7344 C   0  0  0  0  0  0  0  0  0  0  0  0
    8.1919    1.1941    0.5536 C   0  0  0  0  0  0  0  0  0  0  0  0
    7.5457    0.0529   -0.0236 C   0  0  0  0  0  0  0  0  0  0  0  0
    6.1401    0.1566   -0.4728 C   0  0  0  0  0  0  0  0  0  0  0  0
    5.8376    0.5236   -1.7901 C   0  0  0  0  0  0  0  0  0  0  0  0
    4.5104    0.6288   -2.2116 C   0  0  0  0  0  0  0  0  0  0  0  0
    3.4538    0.3711   -1.3250 C   0  0  0  0  0  0  0  0  0  0  0  0
    2.1143    0.4760   -1.7338 C   0  0  0  0  0  0  0  0  0  0  0  0
    1.0550    0.2201   -0.8468 C   0  0  0  0  0  0  0  0  0  0  0  0
   -0.2852    0.3254   -1.2556 C   0  0  0  0  0  0  0  0  0  0  0  0
   -1.3450    0.0713   -0.3688 C   0  0  0  0  0  0  0  0  0  0  0  0
   -2.6846    0.1791   -0.7786 C   0  0  0  0  0  0  0  0  0  0  0  0
   -3.7446   -0.0708    0.1084 C   0  0  0  0  0  0  0  0  0  0  0  0
   -5.0843    0.0431   -0.3008 C   0  0  0  0  0  0  0  0  0  0  0  0
   -6.1429   -0.2005    0.5891 C   0  0  0  0  0  0  0  0  0  0  0  0
   -7.5477   -0.0631    0.1463 C   0  0  0  0  0  0  0  0  0  0  0  0
   -8.2022    1.2073    0.2477 C   0  0  0  0  0  0  0  0  0  0  0  0
   -7.5804    2.3788    0.7514 C   0  0  0  0  0  0  0  0  0  0  0  0
   -8.2454    3.6143    0.8406 C   0  0  0  0  0  0  0  0  0  0  0  0
   -7.6058    4.7607    1.3418 C   0  0  0  0  0  0  0  0  0  0  0  0
   -8.2830    5.9783    1.4235 C   0  0  0  0  0  0  0  0  0  0  0  0
   -9.6071    6.0652    1.0055 C   0  0  0  0  0  0  0  0  0  0  0  0
  -10.2542    4.9346    0.5048 C   0  0  0  0  0  0  0  0  0  0  0  0
   -9.5835    3.7026    0.4169 C   0  0  0  0  0  0  0  0  0  0  0  0
  -10.2137    2.5540   -0.0839 C   0  0  0  0  0  0  0  0  0  0  0  0
   -9.5434    1.3204   -0.1726 C   0  0  0  0  0  0  0  0  0  0  0  0
  -10.2096    0.1980   -0.6802 C   0  0  0  0  0  0  0  0  0  0  0  0
   -9.5842   -1.0503   -0.7891 C   0  0  0  0  0  0  0  0  0  0  0  0
  -10.2948   -2.1482   -1.3072 C   0  0  0  0  0  0  0  0  0  0  0  0
   -9.7061   -3.4147   -1.4353 C   0  0  0  0  0  0  0  0  0  0  0  0
  -10.4171   -4.5104   -1.9538 C   0  0  0  0  0  0  0  0  0  0  0  0
   -9.8113   -5.7620   -2.0731 C   0  0  0  0  0  0  0  0  0  0  0  0
   -8.4890   -5.9334   -1.6762 C   0  0  0  0  0  0  0  0  0  0  0  0
   -7.7720   -4.8533   -1.1595 C   0  0  0  0  0  0  0  0  0  0  0  0
   -8.3695   -3.5877   -1.0335 C   0  0  0  0  0  0  0  0  0  0  0  0
   -7.6640   -2.4875   -0.5152 C   0  0  0  0  0  0  0  0  0  0  0  0
   -8.2435   -1.2000   -0.3783 C   0  0  0  0  0  0  0  0  0  0  0  0
   -5.8424   -0.5692    1.9064 C   0  0  0  0  0  0  0  0  0  0  0  0
   -4.5157   -0.6890    2.3260 C   0  0  0  0  0  0  0  0  0  0  0  0
   -3.4574   -0.4406    1.4386 C   0  0  0  0  0  0  0  0  0  0  0  0
   -2.1179   -0.5500    1.8472 C   0  0  0  0  0  0  0  0  0  0  0  0
   -1.0580   -0.2978    0.9597 C   0  0  0  0  0  0  0  0  0  0  0  0
    0.2823   -0.4041    1.3682 C   0  0  0  0  0  0  0  0  0  0  0  0
    1.3424   -0.1494    0.4816 C   0  0  0  0  0  0  0  0  0  0  0  0
    2.6826   -0.2547    0.8910 C   0  0  0  0  0  0  0  0  0  0  0  0
    3.7423    0.0004    0.0046 C   0  0  0  0  0  0  0  0  0  0  0  0
    5.0828   -0.1040    0.4142 C   0  0  0  0  0  0  0  0  0  0  0  0
   10.4333   -6.8633   -1.2265 H   0  0  0  0  0  0  0  0  0  0  0  0
    8.0732   -6.7739   -1.9874 H   0  0  0  0  0  0  0  0  0  0  0  0
    6.7782   -4.6880   -1.7636 H   0  0  0  0  0  0  0  0  0  0  0  0
    6.6471   -2.3411   -1.0701 H   0  0  0  0  0  0  0  0  0  0  0  0
   11.3494   -2.5029    0.4550 H   0  0  0  0  0  0  0  0  0  0  0  0
   11.4937   -4.8679   -0.2431 H   0  0  0  0  0  0  0  0  0  0  0  0
   11.2463   -0.2098    1.1434 H   0  0  0  0  0  0  0  0  0  0  0  0
   11.2316    2.0780    1.8594 H   0  0  0  0  0  0  0  0  0  0  0  0
   11.2534    4.4322    2.6067 H   0  0  0  0  0  0  0  0  0  0  0  0
   10.0873    6.5853    2.8888 H   0  0  0  0  0  0  0  0  0  0  0  0
    7.7255    6.8274    2.1659 H   0  0  0  0  0  0  0  0  0  0  0  0
    6.5356    4.9170    1.1626 H   0  0  0  0  0  0  0  0  0  0  0  0
    6.5257    2.5815    0.4231 H   0  0  0  0  0  0  0  0  0  0  0  0
    6.6401    0.7314   -2.4955 H   0  0  0  0  0  0  0  0  0  0  0  0
    4.3092    0.9165   -3.2413 H   0  0  0  0  0  0  0  0  0  0  0  0
    1.8941    0.7627   -2.7604 H   0  0  0  0  0  0  0  0  0  0  0  0
   -0.5089    0.6110   -2.2822 H   0  0  0  0  0  0  0  0  0  0  0  0
   -2.9074    0.4653   -1.8052 H   0  0  0  0  0  0  0  0  0  0  0  0
   -5.3148    0.3300   -1.3260 H   0  0  0  0  0  0  0  0  0  0  0  0
   -6.5447    2.3335    1.0857 H   0  0  0  0  0  0  0  0  0  0  0  0
   -6.5705    4.7108    1.6723 H   0  0  0  0  0  0  0  0  0  0  0  0
   -7.7754    6.8568    1.8132 H   0  0  0  0  0  0  0  0  0  0  0  0
  -10.1371    7.0120    1.0679 H   0  0  0  0  0  0  0  0  0  0  0  0
  -11.2893    5.0216    0.1822 H   0  0  0  0  0  0  0  0  0  0  0  0
  -11.2496    2.6234   -0.4122 H   0  0  0  0  0  0  0  0  0  0  0  0
  -11.2458    0.2994   -1.0012 H   0  0  0  0  0  0  0  0  0  0  0  0
  -11.3297   -2.0153   -1.6188 H   0  0  0  0  0  0  0  0  0  0  0  0
  -11.4516   -4.3954   -2.2695 H   0  0  0  0  0  0  0  0  0  0  0  0
  -10.3722   -6.6013   -2.4756 H   0  0  0  0  0  0  0  0  0  0  0  0
   -8.0139   -6.9066   -1.7678 H   0  0  0  0  0  0  0  0  0  0  0  0
   -6.7389   -5.0056   -0.8545 H   0  0  0  0  0  0  0  0  0  0  0  0
   -6.6298   -2.6437   -0.2110 H   0  0  0  0  0  0  0  0  0  0  0  0
   -6.6461   -0.7632    2.6143 H   0  0  0  0  0  0  0  0  0  0  0  0
   -4.3167   -0.9766    3.3561 H   0  0  0  0  0  0  0  0  0  0  0  0
   -1.8973   -0.8337    2.8746 H   0  0  0  0  0  0  0  0  0  0  0  0
    0.5048   -0.6894    2.3951 H   0  0  0  0  0  0  0  0  0  0  0  0
    2.9064   -0.5395    1.9179 H   0  0  0  0  0  0  0  0  0  0  0  0
    5.3150   -0.3891    1.4395 H   0  0  0  0  0  0  0  0  0  0  0  0
  1  2  4  0
  2  3  4  0
  3  4  4  0
  4  5  4  0
  5  6  4  0
  6  7  4  0
  7  8  4  0
  8  9  4  0
  9 10  4  0
  7 11  4  0
 11 12  4  0
 12 13  4  0
 13 14  4  0
 14 15  4  0
 15 16  4  0
 16 17  4  0
 17 18  4  0
 18 19  4  0
 19 20  4  0
 20 21  4  0
 21 22  4  0
 22 23  1  0
 23 24  4  0
 24 25  4  0
 25 26  4  0
 26 27  4  0
 27 28  4  0
 28 29  4  0
 29 30  4  0
 30 31  4  0
 31 32  4  0
 32 33  4  0
 33 34  4  0
 34 35  1  0
 35 36  4  0
 36 37  4  0
 37 38  4  0
 38 39  4  0
 39 40  4  0
 40 41  4  0
 41 42  4  0
 42 43  4  0
 43 44  4  0
 44 45  4  0
 45 46  4  0
 46 47  4  0
 47 48  4  0
 48 49  4  0
 49 50  4  0
 50 51  4  0
 51 52  4  0
 52 53  4  0
 53 54  4  0
 54 55  4  0
 55 56  4  0
 34 57  4  0
 57 58  4  0
 58 59  4  0
 59 60  4  0
 60 61  4  0
 61 62  4  0
 62 63  4  0
 63 64  4  0
 64 65  4  0
 65 66  4  0
 10  1  4  0
 21 12  4  0
 66 23  4  0
  9  4  4  0
 19 14  4  0
 65 26  4  0
 22  6  4  0
 63 28  4  0
 61 30  4  0
 59 32  4  0
 56 35  4  0
 45 36  4  0
 56 47  4  0
 43 38  4  0
 54 49  4  0
  1 67  1  0
  2 68  1  0
  3 69  1  0
  5 70  1  0
  8 71  1  0
 10 72  1  0
 11 73  1  0
 13 74  1  0
 15 75  1  0
 16 76  1  0
 17 77  1  0
 18 78  1  0
 20 79  1  0
 24 80  1  0
 25 81  1  0
 27 82  1  0
 29 83  1  0
 31 84  1  0
 33 85  1  0
 37 86  1  0
 39 87  1  0
 40 88  1  0
 41 89  1  0
 42 90  1  0
 44 91  1  0
 46 92  1  0
 48 93  1  0
 50 94  1  0
 51 95  1  0
 52 96  1  0
 53 97  1  0
 55 98  1  0
 57 99  1  0
 58100  1  0
 60101  1  0
 62102  1  0
 64103  1  0
 66104  1  0
M  END
