
     RDKit          3D

104118  0  0  0  0  0  0  0  0999 V2000
   -9.4679   -5.8774    3.8633 C   0  0  0  0  0  0  0  0  0  0  0  0
   -8.1334   -5.6268    4.1675 C   0  0  0  0  0  0  0  0  0  0  0  0
   -7.4815   -4.5334    3.5951 C   0  0  0  0  0  0  0  0  0  0  0  0
   -8.1570   -3.6766    2.7106 C   0  0  0  0  0  0  0  0  0  0  0  0
   -7.5153   -2.5726    2.1263 C   0  0  0  0  0  0  0  0  0  0  0  0
   -8.1911   -1.7167    1.2398 C   0  0  0  0  0  0  0  0  0  0  0  0
   -7.5508   -0.6113    0.6522 C   0  0  0  0  0  0  0  0  0  0  0  0
   -8.2062    0.2665   -0.2487 C   0  0  0  0  0  0  0  0  0  0  0  0
   -9.5575   -0.0070   -0.5441 C   0  0  0  0  0  0  0  0  0  0  0  0
  -10.2024   -1.1105    0.0436 C   0  0  0  0  0  0  0  0  0  0  0  0
   -9.5370   -1.9695    0.9311 C   0  0  0  0  0  0  0  0  0  0  0  0
  -10.1831   -3.0731    1.5154 C   0  0  0  0  0  0  0  0  0  0  0  0
   -9.5099   -3.9305    2.4014 C   0  0  0  0  0  0  0  0  0  0  0  0
  -10.1523   -5.0349    2.9857 C   0  0  0  0  0  0  0  0  0  0  0  0
  -10.2589    0.8240   -1.4266 C   0  0  0  0  0  0  0  0  0  0  0  0
   -9.6581    1.9316   -2.0369 C   0  0  0  0  0  0  0  0  0  0  0  0
  -10.4019    2.7369   -2.9176 C   0  0  0  0  0  0  0  0  0  0  0  0
   -9.8287    3.8437   -3.5398 C   0  0  0  0  0  0  0  0  0  0  0  0
   -8.5018    4.1594   -3.2892 C   0  0  0  0  0  0  0  0  0  0  0  0
   -7.7528    3.3669   -2.4160 C   0  0  0  0  0  0  0  0  0  0  0  0
   -8.3054    2.2349   -1.7650 C   0  0  0  0  0  0  0  0  0  0  0  0
   -7.5748    1.3968   -0.8627 C   0  0  0  0  0  0  0  0  0  0  0  0
   -6.1580    1.6982   -0.5620 C   0  0  0  0  0  0  0  0  0  0  0  0
   -5.8181    2.5616    0.4870 C   0  0  0  0  0  0  0  0  0  0  0  0
   -4.4795    2.8364    0.7762 C   0  0  0  0  0  0  0  0  0  0  0  0
   -3.4486    2.2528    0.0241 C   0  0  0  0  0  0  0  0  0  0  0  0
   -2.0978    2.5159    0.3055 C   0  0  0  0  0  0  0  0  0  0  0  0
   -1.0648    1.9293   -0.4454 C   0  0  0  0  0  0  0  0  0  0  0  0
    0.2870    2.1901   -0.1633 C   0  0  0  0  0  0  0  0  0  0  0  0
    1.3203    1.6026   -0.9133 C   0  0  0  0  0  0  0  0  0  0  0  0
    2.6725    1.8627   -0.6308 C   0  0  0  0  0  0  0  0  0  0  0  0
    3.7047    1.2729   -1.3795 C   0  0  0  0  0  0  0  0  0  0  0  0
    5.0570    1.5321   -1.0964 C   0  0  0  0  0  0  0  0  0  0  0  0
    6.0869    0.9367   -1.8430 C   0  0  0  0  0  0  0  0  0  0  0  0
    7.5054    1.2170   -1.5293 C   0  0  0  0  0  0  0  0  0  0  0  0
    8.1886    2.2746   -2.2119 C   0  0  0  0  0  0  0  0  0  0  0  0
    7.5853    3.1022   -3.1928 C   0  0  0  0  0  0  0  0  0  0  0  0
    8.2889    4.1226   -3.8370 C   0  0  0  0  0  0  0  0  0  0  0  0
    9.6195    4.3487   -3.5191 C   0  0  0  0  0  0  0  0  0  0  0  0
   10.2419    3.5551   -2.5580 C   0  0  0  0  0  0  0  0  0  0  0  0
    9.5440    2.5250   -1.9029 C   0  0  0  0  0  0  0  0  0  0  0  0
   10.1935    1.7441   -0.9396 C   0  0  0  0  0  0  0  0  0  0  0  0
    9.5388    0.7088   -0.2607 C   0  0  0  0  0  0  0  0  0  0  0  0
   10.2324   -0.0469    0.7018 C   0  0  0  0  0  0  0  0  0  0  0  0
    9.6159   -1.0914    1.4066 C   0  0  0  0  0  0  0  0  0  0  0  0
   10.3115   -1.8426    2.3700 C   0  0  0  0  0  0  0  0  0  0  0  0
    9.6884   -2.8857    3.0747 C   0  0  0  0  0  0  0  0  0  0  0  0
   10.3811   -3.6366    4.0391 C   0  0  0  0  0  0  0  0  0  0  0  0
    9.7467   -4.6691    4.7316 C   0  0  0  0  0  0  0  0  0  0  0  0
    8.4125   -4.9642    4.4687 C   0  0  0  0  0  0  0  0  0  0  0  0
    7.7112   -4.2275    3.5129 C   0  0  0  0  0  0  0  0  0  0  0  0
    8.3359   -3.1853    2.8078 C   0  0  0  0  0  0  0  0  0  0  0  0
    7.6446   -2.4337    1.8430 C   0  0  0  0  0  0  0  0  0  0  0  0
    8.2703   -1.3895    1.1399 C   0  0  0  0  0  0  0  0  0  0  0  0
    7.5810   -0.6333    0.1748 C   0  0  0  0  0  0  0  0  0  0  0  0
    8.1863    0.4287   -0.5452 C   0  0  0  0  0  0  0  0  0  0  0  0
    5.7445    0.0713   -2.8896 C   0  0  0  0  0  0  0  0  0  0  0  0
    4.4050   -0.1922   -3.1849 C   0  0  0  0  0  0  0  0  0  0  0  0
    3.3758    0.4008   -2.4377 C   0  0  0  0  0  0  0  0  0  0  0  0
    2.0247    0.1430   -2.7211 C   0  0  0  0  0  0  0  0  0  0  0  0
    0.9930    0.7328   -1.9714 C   0  0  0  0  0  0  0  0  0  0  0  0
   -0.3586    0.4726   -2.2540 C   0  0  0  0  0  0  0  0  0  0  0  0
   -1.3914    1.0597   -1.5040 C   0  0  0  0  0  0  0  0  0  0  0  0
   -2.7426    0.7971   -1.7867 C   0  0  0  0  0  0  0  0  0  0  0  0
   -3.7754    1.3821   -1.0359 C   0  0  0  0  0  0  0  0  0  0  0  0
   -5.1266    1.1163   -1.3170 C   0  0  0  0  0  0  0  0  0  0  0  0
   -9.9773   -6.7284    4.3077 H   0  0  0  0  0  0  0  0  0  0  0  0
   -7.5978   -6.2813    4.8498 H   0  0  0  0  0  0  0  0  0  0  0  0
   -6.4380   -4.3539    3.8443 H   0  0  0  0  0  0  0  0  0  0  0  0
   -6.4713   -2.3761    2.3643 H   0  0  0  0  0  0  0  0  0  0  0  0
   -6.5069   -0.4333    0.9072 H   0  0  0  0  0  0  0  0  0  0  0  0
  -11.2465   -1.3067   -0.1957 H   0  0  0  0  0  0  0  0  0  0  0  0
  -11.2267   -3.2685    1.2758 H   0  0  0  0  0  0  0  0  0  0  0  0
  -11.1947   -5.2470    2.7591 H   0  0  0  0  0  0  0  0  0  0  0  0
  -11.3027    0.6021   -1.6461 H   0  0  0  0  0  0  0  0  0  0  0  0
  -11.4442    2.5050   -3.1277 H   0  0  0  0  0  0  0  0  0  0  0  0
  -10.4181    4.4549   -4.2177 H   0  0  0  0  0  0  0  0  0  0  0  0
   -8.0431    5.0196   -3.7696 H   0  0  0  0  0  0  0  0  0  0  0  0
   -6.7145    3.6475   -2.2475 H   0  0  0  0  0  0  0  0  0  0  0  0
   -6.6000    3.0236    1.0867 H   0  0  0  0  0  0  0  0  0  0  0  0
   -4.2491    3.5108    1.5981 H   0  0  0  0  0  0  0  0  0  0  0  0
   -1.8466    3.1880    1.1241 H   0  0  0  0  0  0  0  0  0  0  0  0
    0.5403    2.8624    0.6548 H   0  0  0  0  0  0  0  0  0  0  0  0
    2.9269    2.5343    0.1875 H   0  0  0  0  0  0  0  0  0  0  0  0
    5.3206    2.2054   -0.2818 H   0  0  0  0  0  0  0  0  0  0  0  0
    6.5423    2.9587   -3.4694 H   0  0  0  0  0  0  0  0  0  0  0  0
    7.7929    4.7360   -4.5846 H   0  0  0  0  0  0  0  0  0  0  0  0
   10.1737    5.1404   -4.0157 H   0  0  0  0  0  0  0  0  0  0  0  0
   11.2863    3.7488   -2.3213 H   0  0  0  0  0  0  0  0  0  0  0  0
   11.2387    1.9493   -0.7110 H   0  0  0  0  0  0  0  0  0  0  0  0
   11.2765    0.1836    0.9089 H   0  0  0  0  0  0  0  0  0  0  0  0
   11.3549   -1.6107    2.5758 H   0  0  0  0  0  0  0  0  0  0  0  0
   11.4243   -3.4203    4.2578 H   0  0  0  0  0  0  0  0  0  0  0  0
   10.2948   -5.2417    5.4752 H   0  0  0  0  0  0  0  0  0  0  0  0
    7.9161   -5.7678    5.0063 H   0  0  0  0  0  0  0  0  0  0  0  0
    6.6690   -4.4727    3.3208 H   0  0  0  0  0  0  0  0  0  0  0  0
    6.6008   -2.6641    1.6363 H   0  0  0  0  0  0  0  0  0  0  0  0
    6.5384   -0.8829   -0.0180 H   0  0  0  0  0  0  0  0  0  0  0  0
    6.5255   -0.4025   -3.4815 H   0  0  0  0  0  0  0  0  0  0  0  0
    4.1719   -0.8672   -4.0055 H   0  0  0  0  0  0  0  0  0  0  0  0
    1.7719   -0.5292   -3.5392 H   0  0  0  0  0  0  0  0  0  0  0  0
   -0.6107   -0.2000   -3.0720 H   0  0  0  0  0  0  0  0  0  0  0  0
   -2.9951    0.1249   -2.6051 H   0  0  0  0  0  0  0  0  0  0  0  0
   -5.3882    0.4426   -2.1319 H   0  0  0  0  0  0  0  0  0  0  0  0
  1  2  4  0
  2  3  4  0
  3  4  4  0
  4  5  4  0
  5  6  4  0
  6  7  4  0
  7  8  4  0
  8  9  4  0
  9 10  4  0
 10 11  4  0
 11 12  4  0
 12 13  4  0
 13 14  4  0
  9 15  4  0
 15 16  4  0
 16 17  4  0
 17 18  4  0
 18 19  4  0
 19 20  4  0
 20 21  4  0
 21 22  4  0
 22 23  1  0
 23 24  4  0
 24 25  4  0
 25 26  4  0
 26 27  4  0
 27 28  4  0
 28 29  4  0
 29 30  4  0
 30 31  4  0
 31 32  4  0
 32 33  4  0
 33 34  4  0
 34 35  1  0
 35 36  4  0
 36 37  4  0
 37 38  4  0
 38 39  4  0
 39 40  4  0
 40 41  4  0
 41 42  4  0
 42 43  4  0
 43 44  4  0
 44 45  4  0
 45 46  4  0
 46 47  4  0
 47 48  4  0
 48 49  4  0
 49 50  4  0
 50 51  4  0
 51 52  4  0
 52 53  4  0
 53 54  4  0
 54 55  4  0
 55 56  4  0
 34 57  4  0
 57 58  4  0
 58 59  4  0
 59 60  4  0
 60 61  4  0
 61 62  4  0
 62 63  4  0
 63 64  4  0
 64 65  4  0
 65 66  4  0
 14  1  4  0
 21 16  4  0
 66 23  4  0
 13  4  4  0
 65 26  4  0
 11  6  4  0
 63 28  4  0
 22  8  4  0
 61 30  4  0
 59 32  4  0
 56 35  4  0
 41 36  4  0
 56 43  4  0
 54 45  4  0
 52 47  4  0
  1 67  1  0
  2 68  1  0
  3 69  1  0
  5 70  1  0
  7 71  1  0
 10 72  1  0
 12 73  1  0
 14 74  1  0
 15 75  1  0
 17 76  1  0
 18 77  1  0
 19 78  1  0
 20 79  1  0
 24 80  1  0
 25 81  1  0
 27 82  1  0
 29 83  1  0
 31 84  1  0
 33 85  1  0
 37 86  1  0
 38 87  1  0
 39 88  1  0
 40 89  1  0
 42 90  1  0
 44 91  1  0
 46 92  1  0
 48 93  1  0
 49 94  1  0
 50 95  1  0
 51 96  1  0
 53 97  1  0
 55 98  1  0
 57 99  1  0
 58100  1  0
 60101  1  0
 62102  1  0
 64103  1  0
 66104  1  0
M  END
