
     RDKit          3D

104118  0  0  0  0  0  0  0  0999 V2000
    5.2987    6.2842   -0.0776 C   0  0  0  0  0  0  0  0  0  0  0  0
    4.5376    5.2728    0.4991 C   0  0  0  0  0  0  0  0  0  0  0  0
    4.9502    3.9438    0.3911 C   0  0  0  0  0  0  0  0  0  0  0  0
    6.1300    3.6088   -0.2955 C   0  0  0  0  0  0  0  0  0  0  0  0
    6.5626    2.2741   -0.4140 C   0  0  0  0  0  0  0  0  0  0  0  0
    7.7486    1.9039   -1.1004 C   0  0  0  0  0  0  0  0  0  0  0  0
    8.4990    2.9568   -1.6784 C   0  0  0  0  0  0  0  0  0  0  0  0
    8.0717    4.2911   -1.5627 C   0  0  0  0  0  0  0  0  0  0  0  0
    6.8975    4.6321   -0.8785 C   0  0  0  0  0  0  0  0  0  0  0  0
    6.4720    5.9667   -0.7629 C   0  0  0  0  0  0  0  0  0  0  0  0
    9.6776    2.6731   -2.3721 C   0  0  0  0  0  0  0  0  0  0  0  0
   10.1294    1.3639   -2.5047 C   0  0  0  0  0  0  0  0  0  0  0  0
    9.4162    0.2999   -1.9466 C   0  0  0  0  0  0  0  0  0  0  0  0
    9.8993   -1.0100   -2.0968 C   0  0  0  0  0  0  0  0  0  0  0  0
    9.2279   -2.1162   -1.5574 C   0  0  0  0  0  0  0  0  0  0  0  0
    9.7434   -3.4107   -1.7288 C   0  0  0  0  0  0  0  0  0  0  0  0
    9.0880   -4.5173   -1.1982 C   0  0  0  0  0  0  0  0  0  0  0  0
    7.9061   -4.3418   -0.4876 C   0  0  0  0  0  0  0  0  0  0  0  0
    7.3611   -3.0589   -0.2964 C   0  0  0  0  0  0  0  0  0  0  0  0
    6.1083   -2.9457    0.4669 C   0  0  0  0  0  0  0  0  0  0  0  0
    6.1311   -2.7653    1.8548 C   0  0  0  0  0  0  0  0  0  0  0  0
    4.9408   -2.6599    2.5785 C   0  0  0  0  0  0  0  0  0  0  0  0
    3.6985   -2.7341    1.9307 C   0  0  0  0  0  0  0  0  0  0  0  0
    2.4932   -2.6315    2.6446 C   0  0  0  0  0  0  0  0  0  0  0  0
    1.2490   -2.7058    1.9960 C   0  0  0  0  0  0  0  0  0  0  0  0
    0.0430   -2.6049    2.7099 C   0  0  0  0  0  0  0  0  0  0  0  0
   -1.2016   -2.6757    2.0615 C   0  0  0  0  0  0  0  0  0  0  0  0
   -2.4077   -2.5727    2.7754 C   0  0  0  0  0  0  0  0  0  0  0  0
   -3.6515   -2.6445    2.1266 C   0  0  0  0  0  0  0  0  0  0  0  0
   -4.8559   -2.5406    2.8390 C   0  0  0  0  0  0  0  0  0  0  0  0
   -6.0848   -2.6143    2.1787 C   0  0  0  0  0  0  0  0  0  0  0  0
   -6.1395   -2.7914    0.7912 C   0  0  0  0  0  0  0  0  0  0  0  0
   -7.4328   -2.8598    0.0927 C   0  0  0  0  0  0  0  0  0  0  0  0
   -8.1017   -1.6947   -0.3869 C   0  0  0  0  0  0  0  0  0  0  0  0
   -7.5922   -0.3785   -0.2405 C   0  0  0  0  0  0  0  0  0  0  0  0
   -8.2520    0.7869   -0.7114 C   0  0  0  0  0  0  0  0  0  0  0  0
   -9.4888    0.5869   -1.3637 C   0  0  0  0  0  0  0  0  0  0  0  0
  -10.0106   -0.7075   -1.5218 C   0  0  0  0  0  0  0  0  0  0  0  0
   -9.3394   -1.8426   -1.0456 C   0  0  0  0  0  0  0  0  0  0  0  0
   -9.8934   -3.1204   -1.2217 C   0  0  0  0  0  0  0  0  0  0  0  0
   -9.2382   -4.2551   -0.7532 C   0  0  0  0  0  0  0  0  0  0  0  0
   -8.0172   -4.1248   -0.1009 C   0  0  0  0  0  0  0  0  0  0  0  0
  -10.2026    1.6821   -1.8568 C   0  0  0  0  0  0  0  0  0  0  0  0
   -9.7122    2.9765   -1.7137 C   0  0  0  0  0  0  0  0  0  0  0  0
   -8.4934    3.2138   -1.0736 C   0  0  0  0  0  0  0  0  0  0  0  0
   -8.0277    4.5341   -0.9443 C   0  0  0  0  0  0  0  0  0  0  0  0
   -6.8130    4.8284   -0.3104 C   0  0  0  0  0  0  0  0  0  0  0  0
   -6.3491    6.1489   -0.1805 C   0  0  0  0  0  0  0  0  0  0  0  0
   -5.1368    6.4206    0.4551 C   0  0  0  0  0  0  0  0  0  0  0  0
   -4.3748    5.3759    0.9677 C   0  0  0  0  0  0  0  0  0  0  0  0
   -4.8245    4.0601    0.8440 C   0  0  0  0  0  0  0  0  0  0  0  0
   -6.0436    3.7718    0.2067 C   0  0  0  0  0  0  0  0  0  0  0  0
   -6.5141    2.4515    0.0738 C   0  0  0  0  0  0  0  0  0  0  0  0
   -7.7413    2.1284   -0.5623 C   0  0  0  0  0  0  0  0  0  0  0  0
   -4.9349   -2.8969    0.0785 C   0  0  0  0  0  0  0  0  0  0  0  0
   -3.6907   -2.8241    0.7287 C   0  0  0  0  0  0  0  0  0  0  0  0
   -2.4849   -2.9248    0.0155 C   0  0  0  0  0  0  0  0  0  0  0  0
   -1.2408   -2.8536    0.6649 C   0  0  0  0  0  0  0  0  0  0  0  0
   -0.0348   -2.9564   -0.0488 C   0  0  0  0  0  0  0  0  0  0  0  0
    1.2096   -2.8847    0.5995 C   0  0  0  0  0  0  0  0  0  0  0  0
    2.4152   -2.9874   -0.1149 C   0  0  0  0  0  0  0  0  0  0  0  0
    3.6595   -2.9155    0.5330 C   0  0  0  0  0  0  0  0  0  0  0  0
    4.8657   -3.0201   -0.1817 C   0  0  0  0  0  0  0  0  0  0  0  0
    8.0297   -1.9220   -0.8398 C   0  0  0  0  0  0  0  0  0  0  0  0
    7.5587   -0.5904   -0.7017 C   0  0  0  0  0  0  0  0  0  0  0  0
    8.2196    0.5465   -1.2376 C   0  0  0  0  0  0  0  0  0  0  0  0
    4.9806    7.3200    0.0046 H   0  0  0  0  0  0  0  0  0  0  0  0
    3.6228    5.5156    1.0332 H   0  0  0  0  0  0  0  0  0  0  0  0
    4.3415    3.1665    0.8483 H   0  0  0  0  0  0  0  0  0  0  0  0
    5.9448    1.5087    0.0485 H   0  0  0  0  0  0  0  0  0  0  0  0
    8.6663    5.0830   -2.0152 H   0  0  0  0  0  0  0  0  0  0  0  0
    7.0544    6.7702   -1.2080 H   0  0  0  0  0  0  0  0  0  0  0  0
   10.2627    3.4732   -2.8210 H   0  0  0  0  0  0  0  0  0  0  0  0
   11.0523    1.1855   -3.0530 H   0  0  0  0  0  0  0  0  0  0  0  0
   10.8242   -1.1726   -2.6486 H   0  0  0  0  0  0  0  0  0  0  0  0
   10.6676   -3.5668   -2.2817 H   0  0  0  0  0  0  0  0  0  0  0  0
    9.4976   -5.5139   -1.3379 H   0  0  0  0  0  0  0  0  0  0  0  0
    7.4006   -5.2135   -0.0756 H   0  0  0  0  0  0  0  0  0  0  0  0
    7.0820   -2.7029    2.3804 H   0  0  0  0  0  0  0  0  0  0  0  0
    4.9933   -2.5197    3.6559 H   0  0  0  0  0  0  0  0  0  0  0  0
    2.5255   -2.4898    3.7233 H   0  0  0  0  0  0  0  0  0  0  0  0
    0.0732   -2.4690    3.7897 H   0  0  0  0  0  0  0  0  0  0  0  0
   -2.3784   -2.4341    3.8548 H   0  0  0  0  0  0  0  0  0  0  0  0
   -4.8481   -2.3985    3.9174 H   0  0  0  0  0  0  0  0  0  0  0  0
   -7.0050   -2.5258    2.7531 H   0  0  0  0  0  0  0  0  0  0  0  0
   -6.6369   -0.2675    0.2654 H   0  0  0  0  0  0  0  0  0  0  0  0
  -10.9663   -0.8346   -2.0290 H   0  0  0  0  0  0  0  0  0  0  0  0
  -10.8482   -3.2410   -1.7295 H   0  0  0  0  0  0  0  0  0  0  0  0
   -9.6787   -5.2381   -0.8957 H   0  0  0  0  0  0  0  0  0  0  0  0
   -7.5128   -5.0180    0.2635 H   0  0  0  0  0  0  0  0  0  0  0  0
  -11.1561    1.5404   -2.3614 H   0  0  0  0  0  0  0  0  0  0  0  0
  -10.2992    3.8020   -2.1112 H   0  0  0  0  0  0  0  0  0  0  0  0
   -8.6241    5.3519   -1.3454 H   0  0  0  0  0  0  0  0  0  0  0  0
   -6.9328    6.9770   -0.5754 H   0  0  0  0  0  0  0  0  0  0  0  0
   -4.7895    7.4460    0.5491 H   0  0  0  0  0  0  0  0  0  0  0  0
   -3.4301    5.5806    1.4641 H   0  0  0  0  0  0  0  0  0  0  0  0
   -4.2140    3.2565    1.2504 H   0  0  0  0  0  0  0  0  0  0  0  0
   -5.8930    1.6595    0.4847 H   0  0  0  0  0  0  0  0  0  0  0  0
   -4.9725   -3.0320   -1.0016 H   0  0  0  0  0  0  0  0  0  0  0  0
   -2.5162   -3.0604   -1.0643 H   0  0  0  0  0  0  0  0  0  0  0  0
   -0.0653   -3.0950   -1.1282 H   0  0  0  0  0  0  0  0  0  0  0  0
    2.3866   -3.1239   -1.1947 H   0  0  0  0  0  0  0  0  0  0  0  0
    4.8440   -3.1591   -1.2617 H   0  0  0  0  0  0  0  0  0  0  0  0
    6.6346   -0.4435   -0.1493 H   0  0  0  0  0  0  0  0  0  0  0  0
  1  2  4  0
  2  3  4  0
  3  4  4  0
  4  5  4  0
  5  6  4  0
  6  7  4  0
  7  8  4  0
  8  9  4  0
  9 10  4  0
  7 11  4  0
 11 12  4  0
 12 13  4  0
 13 14  4  0
 14 15  4  0
 15 16  4  0
 16 17  4  0
 17 18  4  0
 18 19  4  0
 19 20  1  0
 20 21  4  0
 21 22  4  0
 22 23  4  0
 23 24  4  0
 24 25  4  0
 25 26  4  0
 26 27  4  0
 27 28  4  0
 28 29  4  0
 29 30  4  0
 30 31  4  0
 31 32  4  0
 32 33  1  0
 33 34  4  0
 34 35  4  0
 35 36  4  0
 36 37  4  0
 37 38  4  0
 38 39  4  0
 39 40  4  0
 40 41  4  0
 41 42  4  0
 37 43  4  0
 43 44  4  0
 44 45  4  0
 45 46  4  0
 46 47  4  0
 47 48  4  0
 48 49  4  0
 49 50  4  0
 50 51  4  0
 51 52  4  0
 52 53  4  0
 53 54  4  0
 32 55  4  0
 55 56  4  0
 56 57  4  0
 57 58  4  0
 58 59  4  0
 59 60  4  0
 60 61  4  0
 61 62  4  0
 62 63  4  0
 19 64  4  0
 64 65  4  0
 65 66  4  0
 10  1  4  0
 66 13  4  0
  9  4  4  0
 64 15  4  0
 66  6  4  0
 63 20  4  0
 62 23  4  0
 60 25  4  0
 58 27  4  0
 56 29  4  0
 42 33  4  0
 54 45  4  0
 39 34  4  0
 52 47  4  0
 54 36  4  0
  1 67  1  0
  2 68  1  0
  3 69  1  0
  5 70  1  0
  8 71  1  0
 10 72  1  0
 11 73  1  0
 12 74  1  0
 14 75  1  0
 16 76  1  0
 17 77  1  0
 18 78  1  0
 21 79  1  0
 22 80  1  0
 24 81  1  0
 26 82  1  0
 28 83  1  0
 30 84  1  0
 31 85  1  0
 35 86  1  0
 38 87  1  0
 40 88  1  0
 41 89  1  0
 42 90  1  0
 43 91  1  0
 44 92  1  0
 46 93  1  0
 48 94  1  0
 49 95  1  0
 50 96  1  0
 51 97  1  0
 53 98  1  0
 55 99  1  0
 57100  1  0
 59101  1  0
 61102  1  0
 63103  1  0
 65104  1  0
M  END
