
     RDKit          3D

104118  0  0  0  0  0  0  0  0999 V2000
   -5.3050   -2.5189   -5.8569 C   0  0  0  0  0  0  0  0  0  0  0  0
   -4.4397   -2.6401   -4.7747 C   0  0  0  0  0  0  0  0  0  0  0  0
   -4.8107   -2.1347   -3.5276 C   0  0  0  0  0  0  0  0  0  0  0  0
   -6.0532   -1.5016   -3.3460 C   0  0  0  0  0  0  0  0  0  0  0  0
   -6.4496   -0.9858   -2.0931 C   0  0  0  0  0  0  0  0  0  0  0  0
   -7.6908   -0.3370   -1.8373 C   0  0  0  0  0  0  0  0  0  0  0  0
   -8.5266   -0.2302   -2.9836 C   0  0  0  0  0  0  0  0  0  0  0  0
   -8.1479   -0.7410   -4.2393 C   0  0  0  0  0  0  0  0  0  0  0  0
   -6.9208   -1.3788   -4.4372 C   0  0  0  0  0  0  0  0  0  0  0  0
   -6.5396   -1.8907   -5.6902 C   0  0  0  0  0  0  0  0  0  0  0  0
   -9.7623    0.3957   -2.8952 C   0  0  0  0  0  0  0  0  0  0  0  0
  -10.1981    0.9283   -1.6944 C   0  0  0  0  0  0  0  0  0  0  0  0
   -9.4223    0.8456   -0.5382 C   0  0  0  0  0  0  0  0  0  0  0  0
   -9.9730    1.4216    0.6133 C   0  0  0  0  0  0  0  0  0  0  0  0
   -9.3208    1.4087    1.8427 C   0  0  0  0  0  0  0  0  0  0  0  0
   -9.9268    2.0069    2.9639 C   0  0  0  0  0  0  0  0  0  0  0  0
   -9.3020    2.0040    4.2074 C   0  0  0  0  0  0  0  0  0  0  0  0
   -8.0637    1.3995    4.3428 C   0  0  0  0  0  0  0  0  0  0  0  0
   -7.4588    0.8046    3.2321 C   0  0  0  0  0  0  0  0  0  0  0  0
   -8.0643    0.7913    1.9445 C   0  0  0  0  0  0  0  0  0  0  0  0
   -7.4786    0.1922    0.7635 C   0  0  0  0  0  0  0  0  0  0  0  0
   -6.1635   -0.4566    0.9498 C   0  0  0  0  0  0  0  0  0  0  0  0
   -6.0791   -1.8162    1.2830 C   0  0  0  0  0  0  0  0  0  0  0  0
   -4.8375   -2.4193    1.4964 C   0  0  0  0  0  0  0  0  0  0  0  0
   -3.6513   -1.6760    1.3928 C   0  0  0  0  0  0  0  0  0  0  0  0
   -2.3962   -2.2679    1.6087 C   0  0  0  0  0  0  0  0  0  0  0  0
   -1.2080   -1.5231    1.5142 C   0  0  0  0  0  0  0  0  0  0  0  0
    0.0479   -2.1131    1.7383 C   0  0  0  0  0  0  0  0  0  0  0  0
    1.2360   -1.3684    1.6456 C   0  0  0  0  0  0  0  0  0  0  0  0
    2.4912   -1.9581    1.8728 C   0  0  0  0  0  0  0  0  0  0  0  0
    3.6781   -1.2128    1.7826 C   0  0  0  0  0  0  0  0  0  0  0  0
    4.9304   -1.8022    2.0152 C   0  0  0  0  0  0  0  0  0  0  0  0
    6.1030   -1.0487    1.9223 C   0  0  0  0  0  0  0  0  0  0  0  0
    6.0516    0.3115    1.5847 C   0  0  0  0  0  0  0  0  0  0  0  0
    7.2886    1.1186    1.5218 C   0  0  0  0  0  0  0  0  0  0  0  0
    8.0654    1.2384    0.2873 C   0  0  0  0  0  0  0  0  0  0  0  0
    9.2405    2.0324    0.4021 C   0  0  0  0  0  0  0  0  0  0  0  0
    9.6095    2.6557    1.6005 C   0  0  0  0  0  0  0  0  0  0  0  0
    8.8591    2.5411    2.7669 C   0  0  0  0  0  0  0  0  0  0  0  0
    9.2839    3.1930    3.9404 C   0  0  0  0  0  0  0  0  0  0  0  0
    8.5569    3.0932    5.1227 C   0  0  0  0  0  0  0  0  0  0  0  0
    7.3963    2.3384    5.1436 C   0  0  0  0  0  0  0  0  0  0  0  0
    6.9714    1.6898    3.9805 C   0  0  0  0  0  0  0  0  0  0  0  0
    7.6864    1.7698    2.7529 C   0  0  0  0  0  0  0  0  0  0  0  0
   10.0966    2.2342   -0.6804 C   0  0  0  0  0  0  0  0  0  0  0  0
    9.8403    1.6699   -1.9178 C   0  0  0  0  0  0  0  0  0  0  0  0
    8.7113    0.8878   -2.1178 C   0  0  0  0  0  0  0  0  0  0  0  0
    8.5150    0.3522   -3.4045 C   0  0  0  0  0  0  0  0  0  0  0  0
    7.4072   -0.4412   -3.7132 C   0  0  0  0  0  0  0  0  0  0  0  0
    7.2078   -0.9772   -4.9981 C   0  0  0  0  0  0  0  0  0  0  0  0
    6.0886   -1.7627   -5.2758 C   0  0  0  0  0  0  0  0  0  0  0  0
    5.1584   -2.0197   -4.2741 C   0  0  0  0  0  0  0  0  0  0  0  0
    5.3497   -1.4917   -2.9960 C   0  0  0  0  0  0  0  0  0  0  0  0
    6.4741   -0.6994   -2.7026 C   0  0  0  0  0  0  0  0  0  0  0  0
    6.6875   -0.1562   -1.4168 C   0  0  0  0  0  0  0  0  0  0  0  0
    7.8009    0.6524   -1.0502 C   0  0  0  0  0  0  0  0  0  0  0  0
    4.7957    0.9047    1.3633 C   0  0  0  0  0  0  0  0  0  0  0  0
    3.6088    0.1574    1.4545 C   0  0  0  0  0  0  0  0  0  0  0  0
    2.3541    0.7458    1.2266 C   0  0  0  0  0  0  0  0  0  0  0  0
    1.1667   -0.0001    1.3193 C   0  0  0  0  0  0  0  0  0  0  0  0
   -0.0890    0.5898    1.0953 C   0  0  0  0  0  0  0  0  0  0  0  0
   -1.2773   -0.1542    1.1904 C   0  0  0  0  0  0  0  0  0  0  0  0
   -2.5327    0.4382    0.9718 C   0  0  0  0  0  0  0  0  0  0  0  0
   -3.7203   -0.3048    1.0698 C   0  0  0  0  0  0  0  0  0  0  0  0
   -4.9753    0.2900    0.8551 C   0  0  0  0  0  0  0  0  0  0  0  0
   -8.1490    0.2105   -0.5369 C   0  0  0  0  0  0  0  0  0  0  0  0
   -5.0205   -2.9113   -6.8294 H   0  0  0  0  0  0  0  0  0  0  0  0
   -3.4759   -3.1268   -4.8976 H   0  0  0  0  0  0  0  0  0  0  0  0
   -4.1212   -2.2377   -2.6917 H   0  0  0  0  0  0  0  0  0  0  0  0
   -5.7252   -1.1094   -1.3018 H   0  0  0  0  0  0  0  0  0  0  0  0
   -8.8242   -0.6384   -5.0869 H   0  0  0  0  0  0  0  0  0  0  0  0
   -7.2051   -1.8017   -6.5455 H   0  0  0  0  0  0  0  0  0  0  0  0
  -10.4089    0.4846   -3.7658 H   0  0  0  0  0  0  0  0  0  0  0  0
  -11.1726    1.4142   -1.6791 H   0  0  0  0  0  0  0  0  0  0  0  0
  -10.9512    1.8998    0.5531 H   0  0  0  0  0  0  0  0  0  0  0  0
  -10.9009    2.4836    2.8735 H   0  0  0  0  0  0  0  0  0  0  0  0
   -9.7818    2.4703    5.0629 H   0  0  0  0  0  0  0  0  0  0  0  0
   -7.5614    1.3857    5.3062 H   0  0  0  0  0  0  0  0  0  0  0  0
   -6.4864    0.3413    3.3898 H   0  0  0  0  0  0  0  0  0  0  0  0
   -6.9859   -2.4111    1.3753 H   0  0  0  0  0  0  0  0  0  0  0  0
   -4.8056   -3.4770    1.7486 H   0  0  0  0  0  0  0  0  0  0  0  0
   -2.3443   -3.3264    1.8576 H   0  0  0  0  0  0  0  0  0  0  0  0
    0.1010   -3.1708    1.9904 H   0  0  0  0  0  0  0  0  0  0  0  0
    2.5448   -3.0155    2.1265 H   0  0  0  0  0  0  0  0  0  0  0  0
    5.0047   -2.8563    2.2736 H   0  0  0  0  0  0  0  0  0  0  0  0
    7.0625   -1.5265    2.1115 H   0  0  0  0  0  0  0  0  0  0  0  0
   10.5199    3.2554    1.6297 H   0  0  0  0  0  0  0  0  0  0  0  0
   10.1947    3.7887    3.9402 H   0  0  0  0  0  0  0  0  0  0  0  0
    8.8978    3.6019    6.0199 H   0  0  0  0  0  0  0  0  0  0  0  0
    6.8161    2.2482    6.0579 H   0  0  0  0  0  0  0  0  0  0  0  0
    6.0537    1.1079    4.0474 H   0  0  0  0  0  0  0  0  0  0  0  0
   10.9939    2.8428   -0.5768 H   0  0  0  0  0  0  0  0  0  0  0  0
   10.5427    1.8577   -2.7276 H   0  0  0  0  0  0  0  0  0  0  0  0
    9.2423    0.5592   -4.1884 H   0  0  0  0  0  0  0  0  0  0  0  0
    7.9255   -0.7839   -5.7921 H   0  0  0  0  0  0  0  0  0  0  0  0
    5.9443   -2.1711   -6.2724 H   0  0  0  0  0  0  0  0  0  0  0  0
    4.2836   -2.6292   -4.4842 H   0  0  0  0  0  0  0  0  0  0  0  0
    4.6115   -1.7014   -2.2241 H   0  0  0  0  0  0  0  0  0  0  0  0
    5.9233   -0.3933   -0.6916 H   0  0  0  0  0  0  0  0  0  0  0  0
    4.7520    1.9643    1.1143 H   0  0  0  0  0  0  0  0  0  0  0  0
    2.3008    1.8032    0.9727 H   0  0  0  0  0  0  0  0  0  0  0  0
   -0.1423    1.6480    0.8447 H   0  0  0  0  0  0  0  0  0  0  0  0
   -2.5883    1.4970    0.7235 H   0  0  0  0  0  0  0  0  0  0  0  0
   -5.0386    1.3493    0.6098 H   0  0  0  0  0  0  0  0  0  0  0  0
  1  2  4  0
  2  3  4  0
  3  4  4  0
  4  5  4  0
  5  6  4  0
  6  7  4  0
  7  8  4  0
  8  9  4  0
  9 10  4  0
  7 11  4  0
 11 12  4  0
 12 13  4  0
 13 14  4  0
 14 15  4  0
 15 16  4  0
 16 17  4  0
 17 18  4  0
 18 19  4  0
 19 20  4  0
 20 21  4  0
 21 22  1  0
 22 23  4  0
 23 24  4  0
 24 25  4  0
 25 26  4  0
 26 27  4  0
 27 28  4  0
 28 29  4  0
 29 30  4  0
 30 31  4  0
 31 32  4  0
 32 33  4  0
 33 34  4  0
 34 35  1  0
 35 36  4  0
 36 37  4  0
 37 38  4  0
 38 39  4  0
 39 40  4  0
 40 41  4  0
 41 42  4  0
 42 43  4  0
 43 44  4  0
 37 45  4  0
 45 46  4  0
 46 47  4  0
 47 48  4  0
 48 49  4  0
 49 50  4  0
 50 51  4  0
 51 52  4  0
 52 53  4  0
 53 54  4  0
 54 55  4  0
 55 56  4  0
 34 57  4  0
 57 58  4  0
 58 59  4  0
 59 60  4  0
 60 61  4  0
 61 62  4  0
 62 63  4  0
 63 64  4  0
 64 65  4  0
 21 66  4  0
 10  1  4  0
 66 13  4  0
  9  4  4  0
 20 15  4  0
 65 22  4  0
 66  6  4  0
 64 25  4  0
 62 27  4  0
 60 29  4  0
 58 31  4  0
 44 35  4  0
 56 47  4  0
 56 36  4  0
 44 39  4  0
 54 49  4  0
  1 67  1  0
  2 68  1  0
  3 69  1  0
  5 70  1  0
  8 71  1  0
 10 72  1  0
 11 73  1  0
 12 74  1  0
 14 75  1  0
 16 76  1  0
 17 77  1  0
 18 78  1  0
 19 79  1  0
 23 80  1  0
 24 81  1  0
 26 82  1  0
 28 83  1  0
 30 84  1  0
 32 85  1  0
 33 86  1  0
 38 87  1  0
 40 88  1  0
 41 89  1  0
 42 90  1  0
 43 91  1  0
 45 92  1  0
 46 93  1  0
 48 94  1  0
 50 95  1  0
 51 96  1  0
 52 97  1  0
 53 98  1  0
 55 99  1  0
 57100  1  0
 59101  1  0
 61102  1  0
 63103  1  0
 65104  1  0
M  END
