
     RDKit          3D

104118  0  0  0  0  0  0  0  0999 V2000
  -17.2132   -3.1055    2.8442 C   0  0  0  0  0  0  0  0  0  0  0  0
  -17.0275   -3.2713    1.4757 C   0  0  0  0  0  0  0  0  0  0  0  0
  -15.8539   -2.8156    0.8725 C   0  0  0  0  0  0  0  0  0  0  0  0
  -14.8500   -2.1877    1.6304 C   0  0  0  0  0  0  0  0  0  0  0  0
  -13.6592   -1.7209    1.0408 C   0  0  0  0  0  0  0  0  0  0  0  0
  -12.6282   -1.0838    1.7798 C   0  0  0  0  0  0  0  0  0  0  0  0
  -12.8492   -0.9313    3.1703 C   0  0  0  0  0  0  0  0  0  0  0  0
  -14.0360   -1.3950    3.7639 C   0  0  0  0  0  0  0  0  0  0  0  0
  -15.0398   -2.0212    3.0132 C   0  0  0  0  0  0  0  0  0  0  0  0
  -16.2254   -2.4842    3.6092 C   0  0  0  0  0  0  0  0  0  0  0  0
  -11.8818   -0.3142    3.9670 C   0  0  0  0  0  0  0  0  0  0  0  0
  -10.6953    0.1560    3.4132 C   0  0  0  0  0  0  0  0  0  0  0  0
  -10.4408    0.0235    2.0462 C   0  0  0  0  0  0  0  0  0  0  0  0
   -9.2308    0.5093    1.5208 C   0  0  0  0  0  0  0  0  0  0  0  0
   -8.9229    0.4029    0.1579 C   0  0  0  0  0  0  0  0  0  0  0  0
   -7.7099    0.8885   -0.3658 C   0  0  0  0  0  0  0  0  0  0  0  0
   -7.4024    0.7852   -1.7326 C   0  0  0  0  0  0  0  0  0  0  0  0
   -6.1296    1.2966   -2.2636 C   0  0  0  0  0  0  0  0  0  0  0  0
   -6.1076    2.2495   -3.2905 C   0  0  0  0  0  0  0  0  0  0  0  0
   -4.8977    2.7357   -3.7943 C   0  0  0  0  0  0  0  0  0  0  0  0
   -3.6734    2.2791   -3.2853 C   0  0  0  0  0  0  0  0  0  0  0  0
   -2.4491    2.7565   -3.7820 C   0  0  0  0  0  0  0  0  0  0  0  0
   -1.2227    2.2966   -3.2737 C   0  0  0  0  0  0  0  0  0  0  0  0
    0.0022    2.7729   -3.7713 C   0  0  0  0  0  0  0  0  0  0  0  0
    1.2290    2.3126   -3.2643 C   0  0  0  0  0  0  0  0  0  0  0  0
    2.4533    2.7888   -3.7631 C   0  0  0  0  0  0  0  0  0  0  0  0
    3.6795    2.3282   -3.2559 C   0  0  0  0  0  0  0  0  0  0  0  0
    4.9020    2.8016   -3.7537 C   0  0  0  0  0  0  0  0  0  0  0  0
    6.1138    2.3331   -3.2375 C   0  0  0  0  0  0  0  0  0  0  0  0
    6.1397    1.3809   -2.2098 C   0  0  0  0  0  0  0  0  0  0  0  0
    7.4144    0.8905   -1.6631 C   0  0  0  0  0  0  0  0  0  0  0  0
    8.3870    0.3223   -2.4958 C   0  0  0  0  0  0  0  0  0  0  0  0
    9.5966   -0.1450   -1.9726 C   0  0  0  0  0  0  0  0  0  0  0  0
    9.8690   -0.0555   -0.5990 C   0  0  0  0  0  0  0  0  0  0  0  0
   11.0810   -0.5199   -0.0525 C   0  0  0  0  0  0  0  0  0  0  0  0
   11.3851   -0.4419    1.3317 C   0  0  0  0  0  0  0  0  0  0  0  0
   10.3958    0.1367    2.1634 C   0  0  0  0  0  0  0  0  0  0  0  0
    9.1846    0.6015    1.6218 C   0  0  0  0  0  0  0  0  0  0  0  0
    8.9069    0.5124    0.2511 C   0  0  0  0  0  0  0  0  0  0  0  0
    7.6930    0.9777   -0.2888 C   0  0  0  0  0  0  0  0  0  0  0  0
   10.6192    0.2500    3.5375 C   0  0  0  0  0  0  0  0  0  0  0  0
   11.8063   -0.1996    4.1072 C   0  0  0  0  0  0  0  0  0  0  0  0
   12.8060   -0.7757    3.3198 C   0  0  0  0  0  0  0  0  0  0  0  0
   13.9931   -1.2187    3.9290 C   0  0  0  0  0  0  0  0  0  0  0  0
   15.0282   -1.8033    3.1874 C   0  0  0  0  0  0  0  0  0  0  0  0
   16.2145   -2.2454    3.7979 C   0  0  0  0  0  0  0  0  0  0  0  0
   17.2333   -2.8248    3.0407 C   0  0  0  0  0  0  0  0  0  0  0  0
   17.0786   -2.9691    1.6660 C   0  0  0  0  0  0  0  0  0  0  0  0
   15.9048   -2.5340    1.0484 C   0  0  0  0  0  0  0  0  0  0  0  0
   14.8700   -1.9484    1.7981 C   0  0  0  0  0  0  0  0  0  0  0  0
   13.6788   -1.5032    1.1932 C   0  0  0  0  0  0  0  0  0  0  0  0
   12.6166   -0.9080    1.9224 C   0  0  0  0  0  0  0  0  0  0  0  0
    4.9117    0.9092   -1.7153 C   0  0  0  0  0  0  0  0  0  0  0  0
    3.6831    1.3689   -2.2239 C   0  0  0  0  0  0  0  0  0  0  0  0
    2.4585    0.8923   -1.7266 C   0  0  0  0  0  0  0  0  0  0  0  0
    1.2313    1.3526   -2.2340 C   0  0  0  0  0  0  0  0  0  0  0  0
    0.0063    0.8763   -1.7365 C   0  0  0  0  0  0  0  0  0  0  0  0
   -1.2209    1.3365   -2.2434 C   0  0  0  0  0  0  0  0  0  0  0  0
   -2.4461    0.8600   -1.7459 C   0  0  0  0  0  0  0  0  0  0  0  0
   -3.6731    1.3198   -2.2533 C   0  0  0  0  0  0  0  0  0  0  0  0
   -4.9001    0.8430   -1.7560 C   0  0  0  0  0  0  0  0  0  0  0  0
   -8.3441    0.1799   -2.5746 C   0  0  0  0  0  0  0  0  0  0  0  0
   -9.5519   -0.3088   -2.0673 C   0  0  0  0  0  0  0  0  0  0  0  0
   -9.8533   -0.2033   -0.7010 C   0  0  0  0  0  0  0  0  0  0  0  0
  -11.0639   -0.6892   -0.1707 C   0  0  0  0  0  0  0  0  0  0  0  0
  -11.3977   -0.5954    1.2055 C   0  0  0  0  0  0  0  0  0  0  0  0
  -18.1254   -3.4589    3.3174 H   0  0  0  0  0  0  0  0  0  0  0  0
  -17.7943   -3.7549    0.8763 H   0  0  0  0  0  0  0  0  0  0  0  0
  -15.7276   -2.9548   -0.1989 H   0  0  0  0  0  0  0  0  0  0  0  0
  -13.5447   -1.8656   -0.0299 H   0  0  0  0  0  0  0  0  0  0  0  0
  -14.1829   -1.2661    4.8351 H   0  0  0  0  0  0  0  0  0  0  0  0
  -16.3871   -2.3628    4.6779 H   0  0  0  0  0  0  0  0  0  0  0  0
  -12.0413   -0.1911    5.0364 H   0  0  0  0  0  0  0  0  0  0  0  0
   -9.9676    0.6307    4.0684 H   0  0  0  0  0  0  0  0  0  0  0  0
   -8.5112    0.9817    2.1881 H   0  0  0  0  0  0  0  0  0  0  0  0
   -6.9948    1.3670    0.3019 H   0  0  0  0  0  0  0  0  0  0  0  0
   -7.0400    2.6324   -3.7010 H   0  0  0  0  0  0  0  0  0  0  0  0
   -4.9209    3.4779   -4.5891 H   0  0  0  0  0  0  0  0  0  0  0  0
   -2.4515    3.4980   -4.5789 H   0  0  0  0  0  0  0  0  0  0  0  0
    0.0010    3.5146   -4.5682 H   0  0  0  0  0  0  0  0  0  0  0  0
    2.4523    3.5303   -4.5601 H   0  0  0  0  0  0  0  0  0  0  0  0
    4.9228    3.5441   -4.5483 H   0  0  0  0  0  0  0  0  0  0  0  0
    7.0447    2.7298   -3.6384 H   0  0  0  0  0  0  0  0  0  0  0  0
    8.2045    0.2269   -3.5645 H   0  0  0  0  0  0  0  0  0  0  0  0
   10.3253   -0.5835   -2.6509 H   0  0  0  0  0  0  0  0  0  0  0  0
   11.8026   -0.9540   -0.7392 H   0  0  0  0  0  0  0  0  0  0  0  0
    8.4402    1.0431    2.2825 H   0  0  0  0  0  0  0  0  0  0  0  0
    6.9537    1.4279    0.3723 H   0  0  0  0  0  0  0  0  0  0  0  0
    9.8665    0.6930    4.1867 H   0  0  0  0  0  0  0  0  0  0  0  0
   11.9400   -0.0927    5.1818 H   0  0  0  0  0  0  0  0  0  0  0  0
   14.1153   -1.1062    5.0052 H   0  0  0  0  0  0  0  0  0  0  0  0
   16.3528   -2.1407    4.8717 H   0  0  0  0  0  0  0  0  0  0  0  0
   18.1456   -3.1624    3.5252 H   0  0  0  0  0  0  0  0  0  0  0  0
   17.8696   -3.4199    1.0727 H   0  0  0  0  0  0  0  0  0  0  0  0
   15.8027   -2.6557   -0.0277 H   0  0  0  0  0  0  0  0  0  0  0  0
   13.5898   -1.6307    0.1179 H   0  0  0  0  0  0  0  0  0  0  0  0
    4.9140    0.1596   -0.9251 H   0  0  0  0  0  0  0  0  0  0  0  0
    2.4612    0.1497   -0.9306 H   0  0  0  0  0  0  0  0  0  0  0  0
    0.0084    0.1331   -0.9410 H   0  0  0  0  0  0  0  0  0  0  0  0
   -2.4452    0.1171   -0.9501 H   0  0  0  0  0  0  0  0  0  0  0  0
   -4.8998    0.0937   -0.9655 H   0  0  0  0  0  0  0  0  0  0  0  0
   -8.1381    0.0721   -3.6377 H   0  0  0  0  0  0  0  0  0  0  0  0
  -10.2560   -0.7765   -2.7521 H   0  0  0  0  0  0  0  0  0  0  0  0
  -11.7601   -1.1531   -0.8640 H   0  0  0  0  0  0  0  0  0  0  0  0
  1  2  4  0
  2  3  4  0
  3  4  4  0
  4  5  4  0
  5  6  4  0
  6  7  4  0
  7  8  4  0
  8  9  4  0
  9 10  4  0
  7 11  4  0
 11 12  4  0
 12 13  4  0
 13 14  4  0
 14 15  4  0
 15 16  4  0
 16 17  4  0
 17 18  1  0
 18 19  4  0
 19 20  4  0
 20 21  4  0
 21 22  4  0
 22 23  4  0
 23 24  4  0
 24 25  4  0
 25 26  4  0
 26 27  4  0
 27 28  4  0
 28 29  4  0
 29 30  4  0
 30 31  1  0
 31 32  4  0
 32 33  4  0
 33 34  4  0
 34 35  4  0
 35 36  4  0
 36 37  4  0
 37 38  4  0
 38 39  4  0
 39 40  4  0
 37 41  4  0
 41 42  4  0
 42 43  4  0
 43 44  4  0
 44 45  4  0
 45 46  4  0
 46 47  4  0
 47 48  4  0
 48 49  4  0
 49 50  4  0
 50 51  4  0
 51 52  4  0
 30 53  4  0
 53 54  4  0
 54 55  4  0
 55 56  4  0
 56 57  4  0
 57 58  4  0
 58 59  4  0
 59 60  4  0
 60 61  4  0
 17 62  4  0
 62 63  4  0
 63 64  4  0
 64 65  4  0
 65 66  4  0
 10  1  4  0
 66 13  4  0
  9  4  4  0
 64 15  4  0
 66  6  4  0
 61 18  4  0
 60 21  4  0
 58 23  4  0
 56 25  4  0
 54 27  4  0
 40 31  4  0
 52 43  4  0
 39 34  4  0
 50 45  4  0
 52 36  4  0
  1 67  1  0
  2 68  1  0
  3 69  1  0
  5 70  1  0
  8 71  1  0
 10 72  1  0
 11 73  1  0
 12 74  1  0
 14 75  1  0
 16 76  1  0
 19 77  1  0
 20 78  1  0
 22 79  1  0
 24 80  1  0
 26 81  1  0
 28 82  1  0
 29 83  1  0
 32 84  1  0
 33 85  1  0
 35 86  1  0
 38 87  1  0
 40 88  1  0
 41 89  1  0
 42 90  1  0
 44 91  1  0
 46 92  1  0
 47 93  1  0
 48 94  1  0
 49 95  1  0
 51 96  1  0
 53 97  1  0
 55 98  1  0
 57 99  1  0
 59100  1  0
 61101  1  0
 62102  1  0
 63103  1  0
 65104  1  0
M  END
