
     RDKit          3D

104118  0  0  0  0  0  0  0  0999 V2000
  -12.8298    2.5511    5.1717 C   0  0  0  0  0  0  0  0  0  0  0  0
  -13.4762    1.3827    4.7818 C   0  0  0  0  0  0  0  0  0  0  0  0
  -12.9152    0.5744    3.7917 C   0  0  0  0  0  0  0  0  0  0  0  0
  -11.6995    0.9239    3.1781 C   0  0  0  0  0  0  0  0  0  0  0  0
  -11.1166    0.1216    2.1774 C   0  0  0  0  0  0  0  0  0  0  0  0
   -9.8897    0.4435    1.5356 C   0  0  0  0  0  0  0  0  0  0  0  0
   -9.2641    1.6385    1.9583 C   0  0  0  0  0  0  0  0  0  0  0  0
   -9.8381    2.4452    2.9568 C   0  0  0  0  0  0  0  0  0  0  0  0
  -11.0485    2.1043    3.5732 C   0  0  0  0  0  0  0  0  0  0  0  0
  -11.6227    2.9105    4.5713 C   0  0  0  0  0  0  0  0  0  0  0  0
   -8.0600    2.0286    1.3806 C   0  0  0  0  0  0  0  0  0  0  0  0
   -7.4628    1.2539    0.3900 C   0  0  0  0  0  0  0  0  0  0  0  0
   -8.0344    0.0515   -0.0739 C   0  0  0  0  0  0  0  0  0  0  0  0
   -7.4096   -0.7421   -1.0946 C   0  0  0  0  0  0  0  0  0  0  0  0
   -6.1270   -0.3048   -1.6927 C   0  0  0  0  0  0  0  0  0  0  0  0
   -6.1106    0.5042   -2.8359 C   0  0  0  0  0  0  0  0  0  0  0  0
   -4.9000    0.9151   -3.3985 C   0  0  0  0  0  0  0  0  0  0  0  0
   -3.6767    0.5272   -2.8307 C   0  0  0  0  0  0  0  0  0  0  0  0
   -2.4511    0.9327   -3.3840 C   0  0  0  0  0  0  0  0  0  0  0  0
   -1.2259    0.5458   -2.8147 C   0  0  0  0  0  0  0  0  0  0  0  0
    0.0009    0.9522   -3.3667 C   0  0  0  0  0  0  0  0  0  0  0  0
    1.2261    0.5656   -2.7973 C   0  0  0  0  0  0  0  0  0  0  0  0
    2.4525    0.9727   -3.3494 C   0  0  0  0  0  0  0  0  0  0  0  0
    3.6769    0.5866   -2.7797 C   0  0  0  0  0  0  0  0  0  0  0  0
    4.9008    0.9937   -3.3321 C   0  0  0  0  0  0  0  0  0  0  0  0
    6.1104    0.6015   -2.7545 C   0  0  0  0  0  0  0  0  0  0  0  0
    6.1255   -0.2060   -1.6101 C   0  0  0  0  0  0  0  0  0  0  0  0
    7.4082   -0.6241   -0.9983 C   0  0  0  0  0  0  0  0  0  0  0  0
    8.0272    0.1947    0.0064 C   0  0  0  0  0  0  0  0  0  0  0  0
    7.4465    1.4014    0.4477 C   0  0  0  0  0  0  0  0  0  0  0  0
    8.0413    2.2027    1.4190 C   0  0  0  0  0  0  0  0  0  0  0  0
    9.2512    1.8360    2.0004 C   0  0  0  0  0  0  0  0  0  0  0  0
    9.8241    2.6701    2.9776 C   0  0  0  0  0  0  0  0  0  0  0  0
   11.0396    2.3521    3.5965 C   0  0  0  0  0  0  0  0  0  0  0  0
   11.6126    3.1853    4.5731 C   0  0  0  0  0  0  0  0  0  0  0  0
   12.8248    2.8482    5.1763 C   0  0  0  0  0  0  0  0  0  0  0  0
   13.4775    1.6756    4.8104 C   0  0  0  0  0  0  0  0  0  0  0  0
   12.9179    0.8407    3.8418 C   0  0  0  0  0  0  0  0  0  0  0  0
   11.6971    1.1675    3.2258 C   0  0  0  0  0  0  0  0  0  0  0  0
   11.1156    0.3381    2.2464 C   0  0  0  0  0  0  0  0  0  0  0  0
    9.8838    0.6362    1.6023 C   0  0  0  0  0  0  0  0  0  0  0  0
    9.2601   -0.1937    0.5924 C   0  0  0  0  0  0  0  0  0  0  0  0
    9.8263   -1.4086    0.1406 C   0  0  0  0  0  0  0  0  0  0  0  0
    9.2388   -2.2260   -0.8373 C   0  0  0  0  0  0  0  0  0  0  0  0
    9.8688   -3.4214   -1.2306 C   0  0  0  0  0  0  0  0  0  0  0  0
    9.3067   -4.2498   -2.1996 C   0  0  0  0  0  0  0  0  0  0  0  0
    8.1045   -3.8927   -2.7898 C   0  0  0  0  0  0  0  0  0  0  0  0
    7.4710   -2.7085   -2.4070 C   0  0  0  0  0  0  0  0  0  0  0  0
    8.0181   -1.8444   -1.4228 C   0  0  0  0  0  0  0  0  0  0  0  0
    4.9005   -0.6143   -1.0573 C   0  0  0  0  0  0  0  0  0  0  0  0
    3.6757   -0.2278   -1.6284 C   0  0  0  0  0  0  0  0  0  0  0  0
    2.4494   -0.6351   -1.0775 C   0  0  0  0  0  0  0  0  0  0  0  0
    1.2247   -0.2480   -1.6476 C   0  0  0  0  0  0  0  0  0  0  0  0
   -0.0020   -0.6545   -1.0959 C   0  0  0  0  0  0  0  0  0  0  0  0
   -1.2270   -0.2673   -1.6647 C   0  0  0  0  0  0  0  0  0  0  0  0
   -2.4527   -0.6738   -1.1111 C   0  0  0  0  0  0  0  0  0  0  0  0
   -3.6775   -0.2872   -1.6794 C   0  0  0  0  0  0  0  0  0  0  0  0
   -4.9029   -0.6944   -1.1249 C   0  0  0  0  0  0  0  0  0  0  0  0
   -8.0113   -1.9571   -1.5443 C   0  0  0  0  0  0  0  0  0  0  0  0
   -7.4569   -2.7975   -2.5443 C   0  0  0  0  0  0  0  0  0  0  0  0
   -8.0828   -3.9771   -2.9527 C   0  0  0  0  0  0  0  0  0  0  0  0
   -9.2841   -4.3533   -2.3725 C   0  0  0  0  0  0  0  0  0  0  0  0
   -9.8526   -3.5490   -1.3871 C   0  0  0  0  0  0  0  0  0  0  0  0
   -9.2301   -2.3586   -0.9681 C   0  0  0  0  0  0  0  0  0  0  0  0
   -9.8224   -1.5666    0.0274 C   0  0  0  0  0  0  0  0  0  0  0  0
   -9.2634   -0.3586    0.5055 C   0  0  0  0  0  0  0  0  0  0  0  0
  -13.2633    3.1830    5.9423 H   0  0  0  0  0  0  0  0  0  0  0  0
  -14.4165    1.0985    5.2465 H   0  0  0  0  0  0  0  0  0  0  0  0
  -13.4357   -0.3352    3.5004 H   0  0  0  0  0  0  0  0  0  0  0  0
  -11.6511   -0.7828    1.9006 H   0  0  0  0  0  0  0  0  0  0  0  0
   -9.3309    3.3594    3.2612 H   0  0  0  0  0  0  0  0  0  0  0  0
  -11.1304    3.8272    4.8880 H   0  0  0  0  0  0  0  0  0  0  0  0
   -7.5631    2.9452    1.6921 H   0  0  0  0  0  0  0  0  0  0  0  0
   -6.5215    1.6179   -0.0187 H   0  0  0  0  0  0  0  0  0  0  0  0
   -7.0466    0.8181   -3.2940 H   0  0  0  0  0  0  0  0  0  0  0  0
   -4.9219    1.5433   -4.2863 H   0  0  0  0  0  0  0  0  0  0  0  0
   -2.4517    1.5603   -4.2735 H   0  0  0  0  0  0  0  0  0  0  0  0
    0.0020    1.5806   -4.2556 H   0  0  0  0  0  0  0  0  0  0  0  0
    2.4547    1.6011   -4.2383 H   0  0  0  0  0  0  0  0  0  0  0  0
    4.9242    1.6212   -4.2203 H   0  0  0  0  0  0  0  0  0  0  0  0
    7.0471    0.9289   -3.2019 H   0  0  0  0  0  0  0  0  0  0  0  0
    6.4999    1.7476    0.0356 H   0  0  0  0  0  0  0  0  0  0  0  0
    7.5378    3.1216    1.7125 H   0  0  0  0  0  0  0  0  0  0  0  0
    9.3123    3.5879    3.2634 H   0  0  0  0  0  0  0  0  0  0  0  0
   11.1154    4.1058    4.8709 H   0  0  0  0  0  0  0  0  0  0  0  0
   13.2573    3.5007    5.9302 H   0  0  0  0  0  0  0  0  0  0  0  0
   14.4219    1.4091    5.2776 H   0  0  0  0  0  0  0  0  0  0  0  0
   13.4435   -0.0718    3.5693 H   0  0  0  0  0  0  0  0  0  0  0  0
   11.6555   -0.5683    1.9878 H   0  0  0  0  0  0  0  0  0  0  0  0
   10.7693   -1.7494    0.5600 H   0  0  0  0  0  0  0  0  0  0  0  0
   10.8134   -3.7191   -0.7794 H   0  0  0  0  0  0  0  0  0  0  0  0
    9.8080   -5.1687   -2.4899 H   0  0  0  0  0  0  0  0  0  0  0  0
    7.6545   -4.5291   -3.5470 H   0  0  0  0  0  0  0  0  0  0  0  0
    6.5287   -2.4633   -2.8939 H   0  0  0  0  0  0  0  0  0  0  0  0
    4.9089   -1.2437   -0.1684 H   0  0  0  0  0  0  0  0  0  0  0  0
    2.4490   -1.2643   -0.1889 H   0  0  0  0  0  0  0  0  0  0  0  0
   -0.0035   -1.2835   -0.2072 H   0  0  0  0  0  0  0  0  0  0  0  0
   -2.4543   -1.3017   -0.2216 H   0  0  0  0  0  0  0  0  0  0  0  0
   -4.9126   -1.3245   -0.2365 H   0  0  0  0  0  0  0  0  0  0  0  0
   -6.5148   -2.5372   -3.0235 H   0  0  0  0  0  0  0  0  0  0  0  0
   -7.6277   -4.5951   -3.7219 H   0  0  0  0  0  0  0  0  0  0  0  0
   -9.7795   -5.2689   -2.6830 H   0  0  0  0  0  0  0  0  0  0  0  0
  -10.7957   -3.8619   -0.9434 H   0  0  0  0  0  0  0  0  0  0  0  0
  -10.7630   -1.9222    0.4397 H   0  0  0  0  0  0  0  0  0  0  0  0
  1  2  4  0
  2  3  4  0
  3  4  4  0
  4  5  4  0
  5  6  4  0
  6  7  4  0
  7  8  4  0
  8  9  4  0
  9 10  4  0
  7 11  4  0
 11 12  4  0
 12 13  4  0
 13 14  4  0
 14 15  1  0
 15 16  4  0
 16 17  4  0
 17 18  4  0
 18 19  4  0
 19 20  4  0
 20 21  4  0
 21 22  4  0
 22 23  4  0
 23 24  4  0
 24 25  4  0
 25 26  4  0
 26 27  4  0
 27 28  1  0
 28 29  4  0
 29 30  4  0
 30 31  4  0
 31 32  4  0
 32 33  4  0
 33 34  4  0
 34 35  4  0
 35 36  4  0
 36 37  4  0
 37 38  4  0
 38 39  4  0
 39 40  4  0
 40 41  4  0
 41 42  4  0
 42 43  4  0
 43 44  4  0
 44 45  4  0
 45 46  4  0
 46 47  4  0
 47 48  4  0
 48 49  4  0
 27 50  4  0
 50 51  4  0
 51 52  4  0
 52 53  4  0
 53 54  4  0
 54 55  4  0
 55 56  4  0
 56 57  4  0
 57 58  4  0
 14 59  4  0
 59 60  4  0
 60 61  4  0
 61 62  4  0
 62 63  4  0
 63 64  4  0
 64 65  4  0
 65 66  4  0
 10  1  4  0
 66 13  4  0
  9  4  4  0
 58 15  4  0
 64 59  4  0
 66  6  4  0
 57 18  4  0
 55 20  4  0
 53 22  4  0
 51 24  4  0
 49 28  4  0
 42 29  4  0
 49 44  4  0
 41 32  4  0
 39 34  4  0
  1 67  1  0
  2 68  1  0
  3 69  1  0
  5 70  1  0
  8 71  1  0
 10 72  1  0
 11 73  1  0
 12 74  1  0
 16 75  1  0
 17 76  1  0
 19 77  1  0
 21 78  1  0
 23 79  1  0
 25 80  1  0
 26 81  1  0
 30 82  1  0
 31 83  1  0
 33 84  1  0
 35 85  1  0
 36 86  1  0
 37 87  1  0
 38 88  1  0
 40 89  1  0
 43 90  1  0
 45 91  1  0
 46 92  1  0
 47 93  1  0
 48 94  1  0
 50 95  1  0
 52 96  1  0
 54 97  1  0
 56 98  1  0
 58 99  1  0
 60100  1  0
 61101  1  0
 62102  1  0
 63103  1  0
 65104  1  0
M  END
