
     RDKit          3D

104118  0  0  0  0  0  0  0  0999 V2000
   15.6306    5.4538   -0.2909 C   0  0  0  0  0  0  0  0  0  0  0  0
   14.4618    5.5612   -1.0373 C   0  0  0  0  0  0  0  0  0  0  0  0
   13.4713    4.5840   -0.9235 C   0  0  0  0  0  0  0  0  0  0  0  0
   13.6370    3.4861   -0.0613 C   0  0  0  0  0  0  0  0  0  0  0  0
   12.6499    2.4900    0.0675 C   0  0  0  0  0  0  0  0  0  0  0  0
   12.7882    1.3703    0.9290 C   0  0  0  0  0  0  0  0  0  0  0  0
   13.9897    1.2918    1.6748 C   0  0  0  0  0  0  0  0  0  0  0  0
   14.9784    2.2832    1.5500 C   0  0  0  0  0  0  0  0  0  0  0  0
   14.8189    3.3795    0.6921 C   0  0  0  0  0  0  0  0  0  0  0  0
   15.8088    4.3695    0.5691 C   0  0  0  0  0  0  0  0  0  0  0  0
   14.2014    0.2205    2.5458 C   0  0  0  0  0  0  0  0  0  0  0  0
   13.2441   -0.7782    2.6943 C   0  0  0  0  0  0  0  0  0  0  0  0
   12.0467   -0.7358    1.9759 C   0  0  0  0  0  0  0  0  0  0  0  0
   11.1015   -1.7615    2.1509 C   0  0  0  0  0  0  0  0  0  0  0  0
    9.8848   -1.7685    1.4559 C   0  0  0  0  0  0  0  0  0  0  0  0
    8.9416   -2.7918    1.6333 C   0  0  0  0  0  0  0  0  0  0  0  0
    7.7336   -2.7794    0.9305 C   0  0  0  0  0  0  0  0  0  0  0  0
    7.4356   -1.7475    0.0310 C   0  0  0  0  0  0  0  0  0  0  0  0
    6.1652   -1.7337   -0.7108 C   0  0  0  0  0  0  0  0  0  0  0  0
    6.1470   -1.6765   -2.1108 C   0  0  0  0  0  0  0  0  0  0  0  0
    4.9390   -1.6690   -2.8146 C   0  0  0  0  0  0  0  0  0  0  0  0
    3.7131   -1.7166   -2.1357 C   0  0  0  0  0  0  0  0  0  0  0  0
    2.4908   -1.7104   -2.8278 C   0  0  0  0  0  0  0  0  0  0  0  0
    1.2631   -1.7579   -2.1461 C   0  0  0  0  0  0  0  0  0  0  0  0
    0.0401   -1.7525   -2.8376 C   0  0  0  0  0  0  0  0  0  0  0  0
   -1.1879   -1.8003   -2.1565 C   0  0  0  0  0  0  0  0  0  0  0  0
   -2.4108   -1.7952   -2.8483 C   0  0  0  0  0  0  0  0  0  0  0  0
   -3.6378   -1.8431   -2.1663 C   0  0  0  0  0  0  0  0  0  0  0  0
   -4.8589   -1.8371   -2.8553 C   0  0  0  0  0  0  0  0  0  0  0  0
   -6.0715   -1.8849   -2.1613 C   0  0  0  0  0  0  0  0  0  0  0  0
   -6.0994   -1.9413   -0.7614 C   0  0  0  0  0  0  0  0  0  0  0  0
   -7.3751   -1.9930   -0.0302 C   0  0  0  0  0  0  0  0  0  0  0  0
   -7.6474   -3.0281    0.8737 C   0  0  0  0  0  0  0  0  0  0  0  0
   -8.8599   -3.0751    1.5670 C   0  0  0  0  0  0  0  0  0  0  0  0
   -9.8344   -2.0846    1.3747 C   0  0  0  0  0  0  0  0  0  0  0  0
  -11.0562   -2.1126    2.0600 C   0  0  0  0  0  0  0  0  0  0  0  0
  -12.0328   -1.1196    1.8697 C   0  0  0  0  0  0  0  0  0  0  0  0
  -13.2339   -1.1952    2.5790 C   0  0  0  0  0  0  0  0  0  0  0  0
  -14.2216   -0.2289    2.4151 C   0  0  0  0  0  0  0  0  0  0  0  0
  -14.0378    0.8419    1.5370 C   0  0  0  0  0  0  0  0  0  0  0  0
  -15.0567    1.8002    1.3962 C   0  0  0  0  0  0  0  0  0  0  0  0
  -14.9250    2.8938    0.5302 C   0  0  0  0  0  0  0  0  0  0  0  0
  -15.9445    3.8510    0.3907 C   0  0  0  0  0  0  0  0  0  0  0  0
  -15.7935    4.9330   -0.4774 C   0  0  0  0  0  0  0  0  0  0  0  0
  -14.6226    5.0707   -1.2156 C   0  0  0  0  0  0  0  0  0  0  0  0
  -13.6030    4.1264   -1.0857 C   0  0  0  0  0  0  0  0  0  0  0  0
  -13.7412    3.0314   -0.2151 C   0  0  0  0  0  0  0  0  0  0  0  0
  -12.7240    2.0687   -0.0703 C   0  0  0  0  0  0  0  0  0  0  0  0
  -12.8334    0.9529    0.8000 C   0  0  0  0  0  0  0  0  0  0  0  0
  -11.8093   -0.0492    0.9700 C   0  0  0  0  0  0  0  0  0  0  0  0
  -10.5644   -0.0446    0.2883 C   0  0  0  0  0  0  0  0  0  0  0  0
   -9.5830   -1.0372    0.4746 C   0  0  0  0  0  0  0  0  0  0  0  0
   -8.3570   -1.0051   -0.2170 C   0  0  0  0  0  0  0  0  0  0  0  0
   -4.8726   -1.9470   -0.0759 C   0  0  0  0  0  0  0  0  0  0  0  0
   -3.6435   -1.8983   -0.7584 C   0  0  0  0  0  0  0  0  0  0  0  0
   -2.4204   -1.9024   -0.0674 C   0  0  0  0  0  0  0  0  0  0  0  0
   -1.1928   -1.8544   -0.7493 C   0  0  0  0  0  0  0  0  0  0  0  0
    0.0302   -1.8594   -0.0578 C   0  0  0  0  0  0  0  0  0  0  0  0
    1.2582   -1.8120   -0.7389 C   0  0  0  0  0  0  0  0  0  0  0  0
    2.4812   -1.8179   -0.0469 C   0  0  0  0  0  0  0  0  0  0  0  0
    3.7092   -1.7722   -0.7277 C   0  0  0  0  0  0  0  0  0  0  0  0
    4.9338   -1.7803   -0.0353 C   0  0  0  0  0  0  0  0  0  0  0  0
    8.3861   -0.7266   -0.1409 C   0  0  0  0  0  0  0  0  0  0  0  0
    9.6068   -0.7232    0.5610 C   0  0  0  0  0  0  0  0  0  0  0  0
   10.5568    0.3026    0.3903 C   0  0  0  0  0  0  0  0  0  0  0  0
   11.7957    0.3339    1.0825 C   0  0  0  0  0  0  0  0  0  0  0  0
   16.4040    6.2124   -0.3766 H   0  0  0  0  0  0  0  0  0  0  0  0
   14.3190    6.4042   -1.7082 H   0  0  0  0  0  0  0  0  0  0  0  0
   12.5644    4.6858   -1.5154 H   0  0  0  0  0  0  0  0  0  0  0  0
   11.7489    2.6035   -0.5290 H   0  0  0  0  0  0  0  0  0  0  0  0
   15.8940    2.2008    2.1338 H   0  0  0  0  0  0  0  0  0  0  0  0
   16.7288    4.3013    1.1452 H   0  0  0  0  0  0  0  0  0  0  0  0
   15.1207    0.1499    3.1239 H   0  0  0  0  0  0  0  0  0  0  0  0
   13.4479   -1.5953    3.3834 H   0  0  0  0  0  0  0  0  0  0  0  0
   11.3170   -2.5730    2.8444 H   0  0  0  0  0  0  0  0  0  0  0  0
    9.1402   -3.6113    2.3204 H   0  0  0  0  0  0  0  0  0  0  0  0
    7.0277   -3.5936    1.0828 H   0  0  0  0  0  0  0  0  0  0  0  0
    7.0811   -1.6507   -2.6689 H   0  0  0  0  0  0  0  0  0  0  0  0
    4.9653   -1.6293   -3.9014 H   0  0  0  0  0  0  0  0  0  0  0  0
    2.4954   -1.6681   -3.9155 H   0  0  0  0  0  0  0  0  0  0  0  0
    0.0440   -1.7106   -3.9255 H   0  0  0  0  0  0  0  0  0  0  0  0
   -2.4077   -1.7530   -3.9360 H   0  0  0  0  0  0  0  0  0  0  0  0
   -4.8785   -1.7979   -3.9422 H   0  0  0  0  0  0  0  0  0  0  0  0
   -7.0010   -1.8903   -2.7274 H   0  0  0  0  0  0  0  0  0  0  0  0
   -6.9170   -3.8180    1.0376 H   0  0  0  0  0  0  0  0  0  0  0  0
   -9.0373   -3.8957    2.2584 H   0  0  0  0  0  0  0  0  0  0  0  0
  -11.2504   -2.9259    2.7576 H   0  0  0  0  0  0  0  0  0  0  0  0
  -13.4169   -2.0131    3.2729 H   0  0  0  0  0  0  0  0  0  0  0  0
  -15.1427   -0.3246    2.9867 H   0  0  0  0  0  0  0  0  0  0  0  0
  -15.9739    1.6933    1.9735 H   0  0  0  0  0  0  0  0  0  0  0  0
  -16.8666    3.7588    0.9602 H   0  0  0  0  0  0  0  0  0  0  0  0
  -16.5896    5.6662   -0.5759 H   0  0  0  0  0  0  0  0  0  0  0  0
  -14.5009    5.9118   -1.8928 H   0  0  0  0  0  0  0  0  0  0  0  0
  -12.6951    4.2514   -1.6716 H   0  0  0  0  0  0  0  0  0  0  0  0
  -11.8224    2.2056   -0.6612 H   0  0  0  0  0  0  0  0  0  0  0  0
  -10.3377    0.7529   -0.4141 H   0  0  0  0  0  0  0  0  0  0  0  0
   -8.1567   -0.1867   -0.9073 H   0  0  0  0  0  0  0  0  0  0  0  0
   -4.8765   -1.9782    1.0127 H   0  0  0  0  0  0  0  0  0  0  0  0
   -2.4240   -1.9439    1.0205 H   0  0  0  0  0  0  0  0  0  0  0  0
    0.0261   -1.9013    1.0301 H   0  0  0  0  0  0  0  0  0  0  0  0
    2.4774   -1.8595    1.0409 H   0  0  0  0  0  0  0  0  0  0  0  0
    4.9303   -1.8130    1.0534 H   0  0  0  0  0  0  0  0  0  0  0  0
    8.1648    0.0892   -0.8277 H   0  0  0  0  0  0  0  0  0  0  0  0
   10.3101    1.0976   -0.3082 H   0  0  0  0  0  0  0  0  0  0  0  0
  1  2  4  0
  2  3  4  0
  3  4  4  0
  4  5  4  0
  5  6  4  0
  6  7  4  0
  7  8  4  0
  8  9  4  0
  9 10  4  0
  7 11  4  0
 11 12  4  0
 12 13  4  0
 13 14  4  0
 14 15  4  0
 15 16  4  0
 16 17  4  0
 17 18  4  0
 18 19  1  0
 19 20  4  0
 20 21  4  0
 21 22  4  0
 22 23  4  0
 23 24  4  0
 24 25  4  0
 25 26  4  0
 26 27  4  0
 27 28  4  0
 28 29  4  0
 29 30  4  0
 30 31  4  0
 31 32  1  0
 32 33  4  0
 33 34  4  0
 34 35  4  0
 35 36  4  0
 36 37  4  0
 37 38  4  0
 38 39  4  0
 39 40  4  0
 40 41  4  0
 41 42  4  0
 42 43  4  0
 43 44  4  0
 44 45  4  0
 45 46  4  0
 46 47  4  0
 47 48  4  0
 48 49  4  0
 49 50  4  0
 50 51  4  0
 51 52  4  0
 52 53  4  0
 31 54  4  0
 54 55  4  0
 55 56  4  0
 56 57  4  0
 57 58  4  0
 58 59  4  0
 59 60  4  0
 60 61  4  0
 61 62  4  0
 18 63  4  0
 63 64  4  0
 64 65  4  0
 65 66  4  0
 10  1  4  0
 66 13  4  0
  9  4  4  0
 64 15  4  0
 66  6  4  0
 62 19  4  0
 61 22  4  0
 59 24  4  0
 57 26  4  0
 55 28  4  0
 53 32  4  0
 52 35  4  0
 50 37  4  0
 49 40  4  0
 47 42  4  0
  1 67  1  0
  2 68  1  0
  3 69  1  0
  5 70  1  0
  8 71  1  0
 10 72  1  0
 11 73  1  0
 12 74  1  0
 14 75  1  0
 16 76  1  0
 17 77  1  0
 20 78  1  0
 21 79  1  0
 23 80  1  0
 25 81  1  0
 27 82  1  0
 29 83  1  0
 30 84  1  0
 33 85  1  0
 34 86  1  0
 36 87  1  0
 38 88  1  0
 39 89  1  0
 41 90  1  0
 43 91  1  0
 44 92  1  0
 45 93  1  0
 46 94  1  0
 48 95  1  0
 51 96  1  0
 53 97  1  0
 54 98  1  0
 56 99  1  0
 58100  1  0
 60101  1  0
 62102  1  0
 63103  1  0
 65104  1  0
M  END
