
     RDKit          3D

 96110  0  0  0  0  0  0  0  0999 V2000
  -15.3475   -1.6910   -4.1605 C   0  0  0  0  0  0  0  0  0  0  0  0
  -15.2049   -0.3326   -3.9272 C   0  0  0  0  0  0  0  0  0  0  0  0
  -14.0804    0.1426   -3.2456 C   0  0  0  0  0  0  0  0  0  0  0  0
  -13.0583   -0.7206   -2.7726 C   0  0  0  0  0  0  0  0  0  0  0  0
  -13.2306   -2.1037   -3.0252 C   0  0  0  0  0  0  0  0  0  0  0  0
  -14.3658   -2.5697   -3.7117 C   0  0  0  0  0  0  0  0  0  0  0  0
  -12.2670   -3.0196   -2.5908 C   0  0  0  0  0  0  0  0  0  0  0  0
  -11.1219   -2.6061   -1.9048 C   0  0  0  0  0  0  0  0  0  0  0  0
  -10.1719   -3.5450   -1.4806 C   0  0  0  0  0  0  0  0  0  0  0  0
   -9.0255   -3.1436   -0.7963 C   0  0  0  0  0  0  0  0  0  0  0  0
   -8.8009   -1.7920   -0.5194 C   0  0  0  0  0  0  0  0  0  0  0  0
   -9.7510   -0.8326   -0.9392 C   0  0  0  0  0  0  0  0  0  0  0  0
   -9.5229    0.5292   -0.6566 C   0  0  0  0  0  0  0  0  0  0  0  0
   -8.3625    0.9159    0.0344 C   0  0  0  0  0  0  0  0  0  0  0  0
   -7.4118   -0.0253    0.4545 C   0  0  0  0  0  0  0  0  0  0  0  0
   -6.1992    0.3937    1.1728 C   0  0  0  0  0  0  0  0  0  0  0  0
   -6.2834    1.1071    2.3756 C   0  0  0  0  0  0  0  0  0  0  0  0
   -5.1295    1.5027    3.0582 C   0  0  0  0  0  0  0  0  0  0  0  0
   -3.8572    1.1969    2.5536 C   0  0  0  0  0  0  0  0  0  0  0  0
   -2.6877    1.5874    3.2265 C   0  0  0  0  0  0  0  0  0  0  0  0
   -1.4136    1.2823    2.7183 C   0  0  0  0  0  0  0  0  0  0  0  0
   -0.2435    1.6730    3.3909 C   0  0  0  0  0  0  0  0  0  0  0  0
    1.0311    1.3700    2.8831 C   0  0  0  0  0  0  0  0  0  0  0  0
    2.2007    1.7611    3.5566 C   0  0  0  0  0  0  0  0  0  0  0  0
    3.4748    1.4583    3.0481 C   0  0  0  0  0  0  0  0  0  0  0  0
    4.6428    1.8470    3.7200 C   0  0  0  0  0  0  0  0  0  0  0  0
    5.9034    1.5376    3.2009 C   0  0  0  0  0  0  0  0  0  0  0  0
    6.0332    0.8336    1.9965 C   0  0  0  0  0  0  0  0  0  0  0  0
    7.3593    0.5101    1.4486 C   0  0  0  0  0  0  0  0  0  0  0  0
    8.2917   -0.2205    2.1995 C   0  0  0  0  0  0  0  0  0  0  0  0
    9.5611   -0.5369    1.6885 C   0  0  0  0  0  0  0  0  0  0  0  0
    9.9200   -0.1128    0.3882 C   0  0  0  0  0  0  0  0  0  0  0  0
    8.9914    0.6231   -0.3749 C   0  0  0  0  0  0  0  0  0  0  0  0
    7.7278    0.9242    0.1603 C   0  0  0  0  0  0  0  0  0  0  0  0
    9.3504    1.0417   -1.6558 C   0  0  0  0  0  0  0  0  0  0  0  0
   10.6108    0.7359   -2.1783 C   0  0  0  0  0  0  0  0  0  0  0  0
   11.5737   -0.0012   -1.4505 C   0  0  0  0  0  0  0  0  0  0  0  0
   11.2025   -0.4235   -0.1462 C   0  0  0  0  0  0  0  0  0  0  0  0
   12.1081   -1.1633    0.6445 C   0  0  0  0  0  0  0  0  0  0  0  0
   13.3715   -1.4782    0.1374 C   0  0  0  0  0  0  0  0  0  0  0  0
   13.7669   -1.0773   -1.1429 C   0  0  0  0  0  0  0  0  0  0  0  0
   15.0489   -1.4193   -1.6078 C   0  0  0  0  0  0  0  0  0  0  0  0
   15.4803   -1.0397   -2.8756 C   0  0  0  0  0  0  0  0  0  0  0  0
   14.6323   -0.3119   -3.6949 C   0  0  0  0  0  0  0  0  0  0  0  0
   13.3552    0.0342   -3.2434 C   0  0  0  0  0  0  0  0  0  0  0  0
   12.8788   -0.3338   -1.9584 C   0  0  0  0  0  0  0  0  0  0  0  0
   11.7372   -1.5777    1.9307 C   0  0  0  0  0  0  0  0  0  0  0  0
   10.4795   -1.2688    2.4469 C   0  0  0  0  0  0  0  0  0  0  0  0
    4.8600    0.4464    1.3268 C   0  0  0  0  0  0  0  0  0  0  0  0
    3.5835    0.7480    1.8360 C   0  0  0  0  0  0  0  0  0  0  0  0
    2.4133    0.3563    1.1639 C   0  0  0  0  0  0  0  0  0  0  0  0
    1.1384    0.6585    1.6725 C   0  0  0  0  0  0  0  0  0  0  0  0
   -0.0319    0.2670    1.0002 C   0  0  0  0  0  0  0  0  0  0  0  0
   -1.3067    0.5700    1.5082 C   0  0  0  0  0  0  0  0  0  0  0  0
   -2.4770    0.1785    0.8358 C   0  0  0  0  0  0  0  0  0  0  0  0
   -3.7512    0.4820    1.3439 C   0  0  0  0  0  0  0  0  0  0  0  0
   -4.9225    0.0895    0.6711 C   0  0  0  0  0  0  0  0  0  0  0  0
   -7.6487   -1.3776    0.1682 C   0  0  0  0  0  0  0  0  0  0  0  0
  -10.4613    1.4723   -1.0748 C   0  0  0  0  0  0  0  0  0  0  0  0
  -11.6122    1.0757   -1.7627 C   0  0  0  0  0  0  0  0  0  0  0  0
  -11.8839   -0.2785   -2.0670 C   0  0  0  0  0  0  0  0  0  0  0  0
  -10.9241   -1.2340   -1.6392 C   0  0  0  0  0  0  0  0  0  0  0  0
  -16.2183   -2.0683   -4.6895 H   0  0  0  0  0  0  0  0  0  0  0  0
  -15.9646    0.3636   -4.2728 H   0  0  0  0  0  0  0  0  0  0  0  0
  -14.0196    1.2159   -3.0904 H   0  0  0  0  0  0  0  0  0  0  0  0
  -14.4947   -3.6332   -3.9040 H   0  0  0  0  0  0  0  0  0  0  0  0
  -12.4110   -4.0802   -2.7915 H   0  0  0  0  0  0  0  0  0  0  0  0
  -10.3159   -4.6050   -1.6801 H   0  0  0  0  0  0  0  0  0  0  0  0
   -8.3093   -3.8995   -0.4816 H   0  0  0  0  0  0  0  0  0  0  0  0
   -8.1878    1.9713    0.2393 H   0  0  0  0  0  0  0  0  0  0  0  0
   -7.2557    1.3515    2.7993 H   0  0  0  0  0  0  0  0  0  0  0  0
   -5.2347    2.0515    3.9915 H   0  0  0  0  0  0  0  0  0  0  0  0
   -2.7705    2.1389    4.1613 H   0  0  0  0  0  0  0  0  0  0  0  0
   -0.3263    2.2235    4.3265 H   0  0  0  0  0  0  0  0  0  0  0  0
    2.1182    2.3106    4.4927 H   0  0  0  0  0  0  0  0  0  0  0  0
    4.5831    2.3987    4.6555 H   0  0  0  0  0  0  0  0  0  0  0  0
    6.7894    1.8638    3.7423 H   0  0  0  0  0  0  0  0  0  0  0  0
    8.0176   -0.5592    3.1977 H   0  0  0  0  0  0  0  0  0  0  0  0
    7.0202    1.5028   -0.4320 H   0  0  0  0  0  0  0  0  0  0  0  0
    8.6548    1.6129   -2.2668 H   0  0  0  0  0  0  0  0  0  0  0  0
   10.8229    1.0937   -3.1817 H   0  0  0  0  0  0  0  0  0  0  0  0
   14.0636   -2.0493    0.7545 H   0  0  0  0  0  0  0  0  0  0  0  0
   15.7285   -1.9906   -0.9784 H   0  0  0  0  0  0  0  0  0  0  0  0
   16.4742   -1.3126   -3.2189 H   0  0  0  0  0  0  0  0  0  0  0  0
   14.9578   -0.0097   -4.6869 H   0  0  0  0  0  0  0  0  0  0  0  0
   12.7327    0.6048   -3.9264 H   0  0  0  0  0  0  0  0  0  0  0  0
   12.4281   -2.1489    2.5474 H   0  0  0  0  0  0  0  0  0  0  0  0
   10.2252   -1.6072    3.4489 H   0  0  0  0  0  0  0  0  0  0  0  0
    4.9442   -0.1117    0.3952 H   0  0  0  0  0  0  0  0  0  0  0  0
    2.4969   -0.1938    0.2282 H   0  0  0  0  0  0  0  0  0  0  0  0
    0.0509   -0.2833    0.0645 H   0  0  0  0  0  0  0  0  0  0  0  0
   -2.3963   -0.3720   -0.1000 H   0  0  0  0  0  0  0  0  0  0  0  0
   -4.8408   -0.4543   -0.2691 H   0  0  0  0  0  0  0  0  0  0  0  0
   -6.9250   -2.1220    0.4977 H   0  0  0  0  0  0  0  0  0  0  0  0
  -10.3107    2.5305   -0.8722 H   0  0  0  0  0  0  0  0  0  0  0  0
  -12.2994    1.8632   -2.0586 H   0  0  0  0  0  0  0  0  0  0  0  0
  1  2  4  0
  2  3  4  0
  3  4  4  0
  4  5  4  0
  5  6  4  0
  5  7  4  0
  7  8  4  0
  8  9  4  0
  9 10  4  0
 10 11  4  0
 11 12  4  0
 12 13  4  0
 13 14  4  0
 14 15  4  0
 15 16  1  0
 16 17  4  0
 17 18  4  0
 18 19  4  0
 19 20  4  0
 20 21  4  0
 21 22  4  0
 22 23  4  0
 23 24  4  0
 24 25  4  0
 25 26  4  0
 26 27  4  0
 27 28  4  0
 28 29  1  0
 29 30  4  0
 30 31  4  0
 31 32  4  0
 32 33  4  0
 33 34  4  0
 33 35  4  0
 35 36  4  0
 36 37  4  0
 37 38  4  0
 38 39  4  0
 39 40  4  0
 40 41  4  0
 41 42  4  0
 42 43  4  0
 43 44  4  0
 44 45  4  0
 45 46  4  0
 39 47  4  0
 47 48  4  0
 28 49  4  0
 49 50  4  0
 50 51  4  0
 51 52  4  0
 52 53  4  0
 53 54  4  0
 54 55  4  0
 55 56  4  0
 56 57  4  0
 15 58  4  0
 13 59  4  0
 59 60  4  0
 60 61  4  0
 61 62  4  0
  6  1  4  0
 62  8  4  0
 61  4  4  0
 58 11  4  0
 62 12  4  0
 57 16  4  0
 56 19  4  0
 54 21  4  0
 52 23  4  0
 50 25  4  0
 34 29  4  0
 46 37  4  0
 48 31  4  0
 38 32  4  0
 46 41  4  0
  1 63  1  0
  2 64  1  0
  3 65  1  0
  6 66  1  0
  7 67  1  0
  9 68  1  0
 10 69  1  0
 14 70  1  0
 17 71  1  0
 18 72  1  0
 20 73  1  0
 22 74  1  0
 24 75  1  0
 26 76  1  0
 27 77  1  0
 30 78  1  0
 34 79  1  0
 35 80  1  0
 36 81  1  0
 40 82  1  0
 42 83  1  0
 43 84  1  0
 44 85  1  0
 45 86  1  0
 47 87  1  0
 48 88  1  0
 49 89  1  0
 51 90  1  0
 53 91  1  0
 55 92  1  0
 57 93  1  0
 58 94  1  0
 59 95  1  0
 60 96  1  0
M  END
