
     RDKit          3D

 96110  0  0  0  0  0  0  0  0999 V2000
   11.3130   -2.8809   -4.9583 C   0  0  0  0  0  0  0  0  0  0  0  0
   10.0700   -3.3922   -4.6224 C   0  0  0  0  0  0  0  0  0  0  0  0
    9.3937   -2.8984   -3.5028 C   0  0  0  0  0  0  0  0  0  0  0  0
    9.9337   -1.8771   -2.6783 C   0  0  0  0  0  0  0  0  0  0  0  0
   11.2047   -1.3741   -3.0459 C   0  0  0  0  0  0  0  0  0  0  0  0
   11.8758   -1.8781   -4.1741 C   0  0  0  0  0  0  0  0  0  0  0  0
   11.8032   -0.3669   -2.2836 C   0  0  0  0  0  0  0  0  0  0  0  0
   11.1758    0.1663   -1.1543 C   0  0  0  0  0  0  0  0  0  0  0  0
   11.8044    1.1742   -0.4143 C   0  0  0  0  0  0  0  0  0  0  0  0
   11.1935    1.7169    0.7132 C   0  0  0  0  0  0  0  0  0  0  0  0
    9.9382    1.2646    1.1274 C   0  0  0  0  0  0  0  0  0  0  0  0
    9.2801    0.2446    0.3954 C   0  0  0  0  0  0  0  0  0  0  0  0
    9.9062   -0.3134   -0.7606 C   0  0  0  0  0  0  0  0  0  0  0  0
    9.2766   -1.3366   -1.5166 C   0  0  0  0  0  0  0  0  0  0  0  0
    8.0129   -1.7685   -1.0660 C   0  0  0  0  0  0  0  0  0  0  0  0
    7.3975   -1.2241    0.0650 C   0  0  0  0  0  0  0  0  0  0  0  0
    8.0067   -0.2090    0.8201 C   0  0  0  0  0  0  0  0  0  0  0  0
    7.4018    0.3663    1.9736 C   0  0  0  0  0  0  0  0  0  0  0  0
    6.0765   -0.0467    2.4621 C   0  0  0  0  0  0  0  0  0  0  0  0
    5.9529   -1.0110    3.4691 C   0  0  0  0  0  0  0  0  0  0  0  0
    4.6928   -1.4023    3.9287 C   0  0  0  0  0  0  0  0  0  0  0  0
    3.5260   -0.8378    3.3909 C   0  0  0  0  0  0  0  0  0  0  0  0
    2.2516   -1.2231    3.8384 C   0  0  0  0  0  0  0  0  0  0  0  0
    1.0835   -0.6585    3.2984 C   0  0  0  0  0  0  0  0  0  0  0  0
   -0.1917   -1.0440    3.7451 C   0  0  0  0  0  0  0  0  0  0  0  0
   -1.3602   -0.4801    3.2051 C   0  0  0  0  0  0  0  0  0  0  0  0
   -2.6351   -0.8664    3.6526 C   0  0  0  0  0  0  0  0  0  0  0  0
   -3.8029   -0.3029    3.1126 C   0  0  0  0  0  0  0  0  0  0  0  0
   -5.0762   -0.6885    3.5592 C   0  0  0  0  0  0  0  0  0  0  0  0
   -6.2282   -0.1193    3.0108 C   0  0  0  0  0  0  0  0  0  0  0  0
   -6.1354    0.8469    2.0023 C   0  0  0  0  0  0  0  0  0  0  0  0
   -7.3474    1.4495    1.4246 C   0  0  0  0  0  0  0  0  0  0  0  0
   -7.9726    0.9410    0.2505 C   0  0  0  0  0  0  0  0  0  0  0  0
   -7.4913   -0.1788   -0.4471 C   0  0  0  0  0  0  0  0  0  0  0  0
   -8.1251   -0.6552   -1.5989 C   0  0  0  0  0  0  0  0  0  0  0  0
   -9.2803   -0.0461   -2.1295 C   0  0  0  0  0  0  0  0  0  0  0  0
   -9.7790    1.0859   -1.4333 C   0  0  0  0  0  0  0  0  0  0  0  0
  -10.9346    1.7458   -1.9088 C   0  0  0  0  0  0  0  0  0  0  0  0
  -11.5788    1.2826   -3.0592 C   0  0  0  0  0  0  0  0  0  0  0  0
  -11.1084    0.1709   -3.7637 C   0  0  0  0  0  0  0  0  0  0  0  0
  -11.7915   -0.2563   -4.9163 C   0  0  0  0  0  0  0  0  0  0  0  0
  -11.3548   -1.3585   -5.6454 C   0  0  0  0  0  0  0  0  0  0  0  0
  -10.2273   -2.0476   -5.2288 C   0  0  0  0  0  0  0  0  0  0  0  0
   -9.5405   -1.6317   -4.0841 C   0  0  0  0  0  0  0  0  0  0  0  0
   -9.9536   -0.5132   -3.3140 C   0  0  0  0  0  0  0  0  0  0  0  0
  -11.4340    2.8624   -1.2289 C   0  0  0  0  0  0  0  0  0  0  0  0
  -10.8052    3.3377   -0.0812 C   0  0  0  0  0  0  0  0  0  0  0  0
   -9.6608    2.7074    0.4138 C   0  0  0  0  0  0  0  0  0  0  0  0
   -9.1342    1.5747   -0.2564 C   0  0  0  0  0  0  0  0  0  0  0  0
   -9.0364    3.1923    1.5663 C   0  0  0  0  0  0  0  0  0  0  0  0
   -7.8953    2.5715    2.0647 C   0  0  0  0  0  0  0  0  0  0  0  0
   -4.8617    1.2354    1.5577 C   0  0  0  0  0  0  0  0  0  0  0  0
   -3.6935    0.6716    2.0994 C   0  0  0  0  0  0  0  0  0  0  0  0
   -2.4188    1.0574    1.6528 C   0  0  0  0  0  0  0  0  0  0  0  0
   -1.2507    0.4934    2.1933 C   0  0  0  0  0  0  0  0  0  0  0  0
    0.0246    0.8791    1.7467 C   0  0  0  0  0  0  0  0  0  0  0  0
    1.1928    0.3152    2.2867 C   0  0  0  0  0  0  0  0  0  0  0  0
    2.4674    0.7011    1.8389 C   0  0  0  0  0  0  0  0  0  0  0  0
    3.6352    0.1370    2.3781 C   0  0  0  0  0  0  0  0  0  0  0  0
    4.9096    0.5224    1.9281 C   0  0  0  0  0  0  0  0  0  0  0  0
    8.0808    1.3726    2.6769 C   0  0  0  0  0  0  0  0  0  0  0  0
    9.3321    1.8160    2.2598 C   0  0  0  0  0  0  0  0  0  0  0  0
   11.8453   -3.2591   -5.8266 H   0  0  0  0  0  0  0  0  0  0  0  0
    9.6197   -4.1757   -5.2262 H   0  0  0  0  0  0  0  0  0  0  0  0
    8.4231   -3.3350   -3.2858 H   0  0  0  0  0  0  0  0  0  0  0  0
   12.8530   -1.4887   -4.4529 H   0  0  0  0  0  0  0  0  0  0  0  0
   12.7815    0.0118   -2.5764 H   0  0  0  0  0  0  0  0  0  0  0  0
   12.7819    1.5498   -0.7096 H   0  0  0  0  0  0  0  0  0  0  0  0
   11.7112    2.4989    1.2643 H   0  0  0  0  0  0  0  0  0  0  0  0
    7.4666   -2.5490   -1.5878 H   0  0  0  0  0  0  0  0  0  0  0  0
    6.4217   -1.6163    0.3463 H   0  0  0  0  0  0  0  0  0  0  0  0
    6.8429   -1.4679    3.8976 H   0  0  0  0  0  0  0  0  0  0  0  0
    4.6304   -2.1555    4.7112 H   0  0  0  0  0  0  0  0  0  0  0  0
    2.1673   -1.9758    4.6203 H   0  0  0  0  0  0  0  0  0  0  0  0
   -0.2769   -1.7969    4.5267 H   0  0  0  0  0  0  0  0  0  0  0  0
   -2.7199   -1.6188    4.4347 H   0  0  0  0  0  0  0  0  0  0  0  0
   -5.1831   -1.4384    4.3398 H   0  0  0  0  0  0  0  0  0  0  0  0
   -7.2042   -0.4372    3.3726 H   0  0  0  0  0  0  0  0  0  0  0  0
   -6.6044   -0.7082   -0.1032 H   0  0  0  0  0  0  0  0  0  0  0  0
   -7.6821   -1.5266   -2.0726 H   0  0  0  0  0  0  0  0  0  0  0  0
  -12.4683    1.8005   -3.4150 H   0  0  0  0  0  0  0  0  0  0  0  0
  -12.6788    0.2731   -5.2582 H   0  0  0  0  0  0  0  0  0  0  0  0
  -11.8943   -1.6748   -6.5337 H   0  0  0  0  0  0  0  0  0  0  0  0
   -9.8757   -2.9098   -5.7892 H   0  0  0  0  0  0  0  0  0  0  0  0
   -8.6637   -2.2082   -3.8036 H   0  0  0  0  0  0  0  0  0  0  0  0
  -12.3229    3.3771   -1.5877 H   0  0  0  0  0  0  0  0  0  0  0  0
  -11.2208    4.2081    0.4218 H   0  0  0  0  0  0  0  0  0  0  0  0
   -9.4315    4.0607    2.0887 H   0  0  0  0  0  0  0  0  0  0  0  0
   -7.4254    2.9694    2.9624 H   0  0  0  0  0  0  0  0  0  0  0  0
   -4.7857    1.9873    0.7733 H   0  0  0  0  0  0  0  0  0  0  0  0
   -2.3349    1.8105    0.8710 H   0  0  0  0  0  0  0  0  0  0  0  0
    0.1098    1.6318    0.9648 H   0  0  0  0  0  0  0  0  0  0  0  0
    2.5533    1.4529    1.0560 H   0  0  0  0  0  0  0  0  0  0  0  0
    5.0023    1.2743    1.1455 H   0  0  0  0  0  0  0  0  0  0  0  0
    7.6276    1.8209    3.5593 H   0  0  0  0  0  0  0  0  0  0  0  0
    9.8270    2.5996    2.8292 H   0  0  0  0  0  0  0  0  0  0  0  0
  1  2  4  0
  2  3  4  0
  3  4  4  0
  4  5  4  0
  5  6  4  0
  5  7  4  0
  7  8  4  0
  8  9  4  0
  9 10  4  0
 10 11  4  0
 11 12  4  0
 12 13  4  0
 13 14  4  0
 14 15  4  0
 15 16  4  0
 16 17  4  0
 17 18  4  0
 18 19  1  0
 19 20  4  0
 20 21  4  0
 21 22  4  0
 22 23  4  0
 23 24  4  0
 24 25  4  0
 25 26  4  0
 26 27  4  0
 27 28  4  0
 28 29  4  0
 29 30  4  0
 30 31  4  0
 31 32  1  0
 32 33  4  0
 33 34  4  0
 34 35  4  0
 35 36  4  0
 36 37  4  0
 37 38  4  0
 38 39  4  0
 39 40  4  0
 40 41  4  0
 41 42  4  0
 42 43  4  0
 43 44  4  0
 44 45  4  0
 38 46  4  0
 46 47  4  0
 47 48  4  0
 48 49  4  0
 48 50  4  0
 50 51  4  0
 31 52  4  0
 52 53  4  0
 53 54  4  0
 54 55  4  0
 55 56  4  0
 56 57  4  0
 57 58  4  0
 58 59  4  0
 59 60  4  0
 18 61  4  0
 61 62  4  0
  6  1  4  0
 13  8  4  0
 60 19  4  0
 14  4  4  0
 59 22  4  0
 62 11  4  0
 17 12  4  0
 57 24  4  0
 55 26  4  0
 53 28  4  0
 51 32  4  0
 49 33  4  0
 45 36  4  0
 49 37  4  0
 45 40  4  0
  1 63  1  0
  2 64  1  0
  3 65  1  0
  6 66  1  0
  7 67  1  0
  9 68  1  0
 10 69  1  0
 15 70  1  0
 16 71  1  0
 20 72  1  0
 21 73  1  0
 23 74  1  0
 25 75  1  0
 27 76  1  0
 29 77  1  0
 30 78  1  0
 34 79  1  0
 35 80  1  0
 39 81  1  0
 41 82  1  0
 42 83  1  0
 43 84  1  0
 44 85  1  0
 46 86  1  0
 47 87  1  0
 50 88  1  0
 51 89  1  0
 52 90  1  0
 54 91  1  0
 56 92  1  0
 58 93  1  0
 60 94  1  0
 61 95  1  0
 62 96  1  0
M  END
