
     RDKit          3D

 96110  0  0  0  0  0  0  0  0999 V2000
   15.7903   -2.0193    2.8364 C   0  0  0  0  0  0  0  0  0  0  0  0
   15.4342   -0.6907    3.0565 C   0  0  0  0  0  0  0  0  0  0  0  0
   14.2035   -0.1958    2.6000 C   0  0  0  0  0  0  0  0  0  0  0  0
   13.3138   -1.0539    1.9088 C   0  0  0  0  0  0  0  0  0  0  0  0
   13.6826   -2.3987    1.6904 C   0  0  0  0  0  0  0  0  0  0  0  0
   14.9196   -2.8685    2.1573 C   0  0  0  0  0  0  0  0  0  0  0  0
   12.8021   -3.2389    1.0096 C   0  0  0  0  0  0  0  0  0  0  0  0
   11.5720   -2.7589    0.5492 C   0  0  0  0  0  0  0  0  0  0  0  0
   11.1600   -1.4198    0.7443 C   0  0  0  0  0  0  0  0  0  0  0  0
   12.0608   -0.5688    1.4383 C   0  0  0  0  0  0  0  0  0  0  0  0
   11.7223    0.7813    1.6728 C   0  0  0  0  0  0  0  0  0  0  0  0
   10.4971    1.2758    1.2175 C   0  0  0  0  0  0  0  0  0  0  0  0
    9.5889    0.4638    0.5301 C   0  0  0  0  0  0  0  0  0  0  0  0
    8.3677    1.0105    0.0905 C   0  0  0  0  0  0  0  0  0  0  0  0
    7.4155    0.2487   -0.6002 C   0  0  0  0  0  0  0  0  0  0  0  0
    6.1473    0.8416   -1.0518 C   0  0  0  0  0  0  0  0  0  0  0  0
    6.1342    1.9773   -1.8726 C   0  0  0  0  0  0  0  0  0  0  0  0
    4.9290    2.5402   -2.3029 C   0  0  0  0  0  0  0  0  0  0  0  0
    3.7003    1.9823   -1.9218 C   0  0  0  0  0  0  0  0  0  0  0  0
    2.4806    2.5362   -2.3449 C   0  0  0  0  0  0  0  0  0  0  0  0
    1.2498    1.9772   -1.9611 C   0  0  0  0  0  0  0  0  0  0  0  0
    0.0291    2.5304   -2.3834 C   0  0  0  0  0  0  0  0  0  0  0  0
   -1.2020    1.9717   -1.9994 C   0  0  0  0  0  0  0  0  0  0  0  0
   -2.4226    2.5254   -2.4216 C   0  0  0  0  0  0  0  0  0  0  0  0
   -3.6527    1.9665   -2.0366 C   0  0  0  0  0  0  0  0  0  0  0  0
   -4.8712    2.5197   -2.4557 C   0  0  0  0  0  0  0  0  0  0  0  0
   -6.0872    1.9525   -2.0628 C   0  0  0  0  0  0  0  0  0  0  0  0
   -6.1216    0.8166   -1.2428 C   0  0  0  0  0  0  0  0  0  0  0  0
   -7.4002    0.2189   -0.8286 C   0  0  0  0  0  0  0  0  0  0  0  0
   -7.6918   -1.1202   -1.0906 C   0  0  0  0  0  0  0  0  0  0  0  0
   -8.9115   -1.6824   -0.6925 C   0  0  0  0  0  0  0  0  0  0  0  0
   -9.9024   -0.9364   -0.0092 C   0  0  0  0  0  0  0  0  0  0  0  0
   -9.5991    0.4202    0.2539 C   0  0  0  0  0  0  0  0  0  0  0  0
   -8.3698    0.9735   -0.1545 C   0  0  0  0  0  0  0  0  0  0  0  0
  -10.5247    1.2240    0.9277 C   0  0  0  0  0  0  0  0  0  0  0  0
  -11.7573    0.7219    1.3541 C   0  0  0  0  0  0  0  0  0  0  0  0
  -12.6655    1.5501    2.0278 C   0  0  0  0  0  0  0  0  0  0  0  0
  -13.8979    1.0602    2.4582 C   0  0  0  0  0  0  0  0  0  0  0  0
  -14.2524   -0.2715    2.2249 C   0  0  0  0  0  0  0  0  0  0  0  0
  -13.3459   -1.1212    1.5454 C   0  0  0  0  0  0  0  0  0  0  0  0
  -13.7049   -2.4659    1.3104 C   0  0  0  0  0  0  0  0  0  0  0  0
  -14.9487   -2.9440    1.7498 C   0  0  0  0  0  0  0  0  0  0  0  0
  -15.8357   -2.1031    2.4177 C   0  0  0  0  0  0  0  0  0  0  0  0
  -15.4896   -0.7746    2.6539 C   0  0  0  0  0  0  0  0  0  0  0  0
  -12.8084   -3.2979    0.6410 C   0  0  0  0  0  0  0  0  0  0  0  0
  -11.5714   -2.8099    0.2085 C   0  0  0  0  0  0  0  0  0  0  0  0
  -11.1682   -1.4705    0.4216 C   0  0  0  0  0  0  0  0  0  0  0  0
  -12.0858   -0.6278    1.1033 C   0  0  0  0  0  0  0  0  0  0  0  0
   -4.8976    0.2656   -0.8264 C   0  0  0  0  0  0  0  0  0  0  0  0
   -3.6646    0.8250   -1.2107 C   0  0  0  0  0  0  0  0  0  0  0  0
   -2.4436    0.2725   -0.7885 C   0  0  0  0  0  0  0  0  0  0  0  0
   -1.2126    0.8317   -1.1727 C   0  0  0  0  0  0  0  0  0  0  0  0
    0.0082    0.2788   -0.7503 C   0  0  0  0  0  0  0  0  0  0  0  0
    1.2392    0.8372   -1.1344 C   0  0  0  0  0  0  0  0  0  0  0  0
    2.4597    0.2832   -0.7119 C   0  0  0  0  0  0  0  0  0  0  0  0
    3.6908    0.8409   -1.0959 C   0  0  0  0  0  0  0  0  0  0  0  0
    4.9130    0.2862   -0.6735 C   0  0  0  0  0  0  0  0  0  0  0  0
    7.7155   -1.0918   -0.8450 C   0  0  0  0  0  0  0  0  0  0  0  0
    8.9273   -1.6477   -0.4152 C   0  0  0  0  0  0  0  0  0  0  0  0
    9.9016   -0.8935    0.2835 C   0  0  0  0  0  0  0  0  0  0  0  0
   12.6134    1.6178    2.3589 C   0  0  0  0  0  0  0  0  0  0  0  0
   13.8390    1.1360    2.8171 C   0  0  0  0  0  0  0  0  0  0  0  0
   16.7461   -2.3929    3.1942 H   0  0  0  0  0  0  0  0  0  0  0  0
   16.1261   -0.0419    3.5888 H   0  0  0  0  0  0  0  0  0  0  0  0
   15.2137   -3.9030    1.9945 H   0  0  0  0  0  0  0  0  0  0  0  0
   13.0604   -4.2797    0.8273 H   0  0  0  0  0  0  0  0  0  0  0  0
   10.9363   -3.4682    0.0270 H   0  0  0  0  0  0  0  0  0  0  0  0
   10.2449    2.3189    1.4034 H   0  0  0  0  0  0  0  0  0  0  0  0
    8.1452    2.0563    0.3015 H   0  0  0  0  0  0  0  0  0  0  0  0
    7.0702    2.4290   -2.1961 H   0  0  0  0  0  0  0  0  0  0  0  0
    4.9605    3.4195   -2.9425 H   0  0  0  0  0  0  0  0  0  0  0  0
    2.4905    3.4177   -2.9835 H   0  0  0  0  0  0  0  0  0  0  0  0
    0.0374    3.4116   -3.0226 H   0  0  0  0  0  0  0  0  0  0  0  0
   -2.4155    3.4068   -3.0604 H   0  0  0  0  0  0  0  0  0  0  0  0
   -4.8852    3.3990   -3.0959 H   0  0  0  0  0  0  0  0  0  0  0  0
   -7.0144    2.4009   -2.4146 H   0  0  0  0  0  0  0  0  0  0  0  0
   -6.9749   -1.7438   -1.6212 H   0  0  0  0  0  0  0  0  0  0  0  0
   -9.0689   -2.7295   -0.9347 H   0  0  0  0  0  0  0  0  0  0  0  0
   -8.1546    2.0181    0.0694 H   0  0  0  0  0  0  0  0  0  0  0  0
  -10.2801    2.2666    1.1264 H   0  0  0  0  0  0  0  0  0  0  0  0
  -12.4208    2.5917    2.2259 H   0  0  0  0  0  0  0  0  0  0  0  0
  -14.5781    1.7310    2.9782 H   0  0  0  0  0  0  0  0  0  0  0  0
  -15.2355   -3.9784    1.5739 H   0  0  0  0  0  0  0  0  0  0  0  0
  -16.7966   -2.4830    2.7541 H   0  0  0  0  0  0  0  0  0  0  0  0
  -16.1946   -0.1324    3.1769 H   0  0  0  0  0  0  0  0  0  0  0  0
  -13.0595   -4.3382    0.4461 H   0  0  0  0  0  0  0  0  0  0  0  0
  -10.9228   -3.5129   -0.3062 H   0  0  0  0  0  0  0  0  0  0  0  0
   -4.9070   -0.6102   -0.1789 H   0  0  0  0  0  0  0  0  0  0  0  0
   -2.4519   -0.6086   -0.1491 H   0  0  0  0  0  0  0  0  0  0  0  0
    0.0007   -0.6024   -0.1110 H   0  0  0  0  0  0  0  0  0  0  0  0
    2.4514   -0.5977   -0.0724 H   0  0  0  0  0  0  0  0  0  0  0  0
    4.9044   -0.5898   -0.0263 H   0  0  0  0  0  0  0  0  0  0  0  0
    7.0123   -1.7209   -1.3875 H   0  0  0  0  0  0  0  0  0  0  0  0
    9.0928   -2.6961   -0.6458 H   0  0  0  0  0  0  0  0  0  0  0  0
   12.3604    2.6596    2.5448 H   0  0  0  0  0  0  0  0  0  0  0  0
   14.5057    1.8131    3.3459 H   0  0  0  0  0  0  0  0  0  0  0  0
  1  2  4  0
  2  3  4  0
  3  4  4  0
  4  5  4  0
  5  6  4  0
  5  7  4  0
  7  8  4  0
  8  9  4  0
  9 10  4  0
 10 11  4  0
 11 12  4  0
 12 13  4  0
 13 14  4  0
 14 15  4  0
 15 16  1  0
 16 17  4  0
 17 18  4  0
 18 19  4  0
 19 20  4  0
 20 21  4  0
 21 22  4  0
 22 23  4  0
 23 24  4  0
 24 25  4  0
 25 26  4  0
 26 27  4  0
 27 28  4  0
 28 29  1  0
 29 30  4  0
 30 31  4  0
 31 32  4  0
 32 33  4  0
 33 34  4  0
 33 35  4  0
 35 36  4  0
 36 37  4  0
 37 38  4  0
 38 39  4  0
 39 40  4  0
 40 41  4  0
 41 42  4  0
 42 43  4  0
 43 44  4  0
 41 45  4  0
 45 46  4  0
 46 47  4  0
 47 48  4  0
 28 49  4  0
 49 50  4  0
 50 51  4  0
 51 52  4  0
 52 53  4  0
 53 54  4  0
 54 55  4  0
 55 56  4  0
 56 57  4  0
 15 58  4  0
 58 59  4  0
 59 60  4  0
 11 61  4  0
 61 62  4  0
  6  1  4  0
 60  9  4  0
 62  3  4  0
 10  4  4  0
 60 13  4  0
 57 16  4  0
 56 19  4  0
 54 21  4  0
 52 23  4  0
 50 25  4  0
 34 29  4  0
 48 36  4  0
 47 32  4  0
 44 39  4  0
 48 40  4  0
  1 63  1  0
  2 64  1  0
  6 65  1  0
  7 66  1  0
  8 67  1  0
 12 68  1  0
 14 69  1  0
 17 70  1  0
 18 71  1  0
 20 72  1  0
 22 73  1  0
 24 74  1  0
 26 75  1  0
 27 76  1  0
 30 77  1  0
 31 78  1  0
 34 79  1  0
 35 80  1  0
 37 81  1  0
 38 82  1  0
 42 83  1  0
 43 84  1  0
 44 85  1  0
 45 86  1  0
 46 87  1  0
 49 88  1  0
 51 89  1  0
 53 90  1  0
 55 91  1  0
 57 92  1  0
 58 93  1  0
 59 94  1  0
 61 95  1  0
 62 96  1  0
M  END
