
     RDKit          3D

 68 76  0  0  0  0  0  0  0  0999 V2000
  -12.1486    1.4031    0.5115 C   0  0  0  0  0  0  0  0  0  0  0  0
  -11.1782    1.1846    1.4906 C   0  0  0  0  0  0  0  0  0  0  0  0
   -9.9217    0.6574    1.1504 C   0  0  0  0  0  0  0  0  0  0  0  0
   -8.9352    0.4329    2.1208 C   0  0  0  0  0  0  0  0  0  0  0  0
   -7.6894   -0.0926    1.7647 C   0  0  0  0  0  0  0  0  0  0  0  0
   -7.3936   -0.4100    0.4317 C   0  0  0  0  0  0  0  0  0  0  0  0
   -6.0831   -0.9660    0.0587 C   0  0  0  0  0  0  0  0  0  0  0  0
   -5.9851   -2.1846   -0.6261 C   0  0  0  0  0  0  0  0  0  0  0  0
   -4.7399   -2.7141   -0.9779 C   0  0  0  0  0  0  0  0  0  0  0  0
   -3.5552   -2.0368   -0.6551 C   0  0  0  0  0  0  0  0  0  0  0  0
   -2.2963   -2.5551   -1.0014 C   0  0  0  0  0  0  0  0  0  0  0  0
   -1.1098   -1.8749   -0.6787 C   0  0  0  0  0  0  0  0  0  0  0  0
    0.1499   -2.3927   -1.0248 C   0  0  0  0  0  0  0  0  0  0  0  0
    1.3368   -1.7127   -0.7028 C   0  0  0  0  0  0  0  0  0  0  0  0
    2.5963   -2.2303   -1.0497 C   0  0  0  0  0  0  0  0  0  0  0  0
    3.7821   -1.5493   -0.7278 C   0  0  0  0  0  0  0  0  0  0  0  0
    5.0394   -2.0640   -1.0757 C   0  0  0  0  0  0  0  0  0  0  0  0
    6.2102   -1.3735   -0.7488 C   0  0  0  0  0  0  0  0  0  0  0  0
    6.1594   -0.1519   -0.0642 C   0  0  0  0  0  0  0  0  0  0  0  0
    7.3915    0.5741    0.2814 C   0  0  0  0  0  0  0  0  0  0  0  0
    7.6757    0.9212    1.6095 C   0  0  0  0  0  0  0  0  0  0  0  0
    8.8477    1.6089    1.9392 C   0  0  0  0  0  0  0  0  0  0  0  0
    9.7690    1.9707    0.9466 C   0  0  0  0  0  0  0  0  0  0  0  0
   10.9506    2.6619    1.2602 C   0  0  0  0  0  0  0  0  0  0  0  0
   11.8567    3.0160    0.2594 C   0  0  0  0  0  0  0  0  0  0  0  0
   11.5929    2.6839   -1.0661 C   0  0  0  0  0  0  0  0  0  0  0  0
   10.4228    1.9965   -1.3932 C   0  0  0  0  0  0  0  0  0  0  0  0
    9.5012    1.6319   -0.3979 C   0  0  0  0  0  0  0  0  0  0  0  0
    8.3179    0.9387   -0.7106 C   0  0  0  0  0  0  0  0  0  0  0  0
    4.8971    0.3593    0.2824 C   0  0  0  0  0  0  0  0  0  0  0  0
    3.7087   -0.3214   -0.0406 C   0  0  0  0  0  0  0  0  0  0  0  0
    2.4488    0.1957    0.3052 C   0  0  0  0  0  0  0  0  0  0  0  0
    1.2621   -0.4847   -0.0175 C   0  0  0  0  0  0  0  0  0  0  0  0
    0.0024    0.0330    0.3285 C   0  0  0  0  0  0  0  0  0  0  0  0
   -1.1846   -0.6469    0.0066 C   0  0  0  0  0  0  0  0  0  0  0  0
   -2.4443   -0.1289    0.3531 C   0  0  0  0  0  0  0  0  0  0  0  0
   -3.6313   -0.8089    0.0319 C   0  0  0  0  0  0  0  0  0  0  0  0
   -4.8928   -0.2912    0.3796 C   0  0  0  0  0  0  0  0  0  0  0  0
   -8.3855   -0.1832   -0.5380 C   0  0  0  0  0  0  0  0  0  0  0  0
   -9.6438    0.3460   -0.1986 C   0  0  0  0  0  0  0  0  0  0  0  0
  -10.6309    0.5729   -1.1718 C   0  0  0  0  0  0  0  0  0  0  0  0
  -11.8750    1.0979   -0.8184 C   0  0  0  0  0  0  0  0  0  0  0  0
  -13.1170    1.8117    0.7882 H   0  0  0  0  0  0  0  0  0  0  0  0
  -11.4101    1.4297    2.5246 H   0  0  0  0  0  0  0  0  0  0  0  0
   -9.1288    0.6626    3.1661 H   0  0  0  0  0  0  0  0  0  0  0  0
   -6.9503   -0.2654    2.5446 H   0  0  0  0  0  0  0  0  0  0  0  0
   -6.8845   -2.7416   -0.8819 H   0  0  0  0  0  0  0  0  0  0  0  0
   -4.7051   -3.6647   -1.5054 H   0  0  0  0  0  0  0  0  0  0  0  0
   -2.2396   -3.5042   -1.5314 H   0  0  0  0  0  0  0  0  0  0  0  0
    0.2073   -3.3420   -1.5544 H   0  0  0  0  0  0  0  0  0  0  0  0
    2.6554   -3.1792   -1.5798 H   0  0  0  0  0  0  0  0  0  0  0  0
    5.1199   -3.0114   -1.6039 H   0  0  0  0  0  0  0  0  0  0  0  0
    7.1702   -1.8060   -1.0242 H   0  0  0  0  0  0  0  0  0  0  0  0
    6.9869    0.6454    2.4057 H   0  0  0  0  0  0  0  0  0  0  0  0
    9.0353    1.8570    2.9814 H   0  0  0  0  0  0  0  0  0  0  0  0
   11.1734    2.9303    2.2903 H   0  0  0  0  0  0  0  0  0  0  0  0
   12.7673    3.5511    0.5158 H   0  0  0  0  0  0  0  0  0  0  0  0
   12.2969    2.9594   -1.8469 H   0  0  0  0  0  0  0  0  0  0  0  0
   10.2343    1.7463   -2.4349 H   0  0  0  0  0  0  0  0  0  0  0  0
    8.1066    0.6872   -1.7489 H   0  0  0  0  0  0  0  0  0  0  0  0
    4.8398    1.3135    0.8044 H   0  0  0  0  0  0  0  0  0  0  0  0
    2.3911    1.1452    0.8347 H   0  0  0  0  0  0  0  0  0  0  0  0
   -0.0555    0.9825    0.8579 H   0  0  0  0  0  0  0  0  0  0  0  0
   -2.5029    0.8207    0.8822 H   0  0  0  0  0  0  0  0  0  0  0  0
   -4.9518    0.6631    0.9012 H   0  0  0  0  0  0  0  0  0  0  0  0
   -8.1685   -0.4132   -1.5801 H   0  0  0  0  0  0  0  0  0  0  0  0
  -10.4359    0.3412   -2.2166 H   0  0  0  0  0  0  0  0  0  0  0  0
  -12.6292    1.2681   -1.5824 H   0  0  0  0  0  0  0  0  0  0  0  0
  1  2  4  0
  2  3  4  0
  3  4  4  0
  4  5  4  0
  5  6  4  0
  6  7  1  0
  7  8  4  0
  8  9  4  0
  9 10  4  0
 10 11  4  0
 11 12  4  0
 12 13  4  0
 13 14  4  0
 14 15  4  0
 15 16  4  0
 16 17  4  0
 17 18  4  0
 18 19  4  0
 19 20  1  0
 20 21  4  0
 21 22  4  0
 22 23  4  0
 23 24  4  0
 24 25  4  0
 25 26  4  0
 26 27  4  0
 27 28  4  0
 28 29  4  0
 19 30  4  0
 30 31  4  0
 31 32  4  0
 32 33  4  0
 33 34  4  0
 34 35  4  0
 35 36  4  0
 36 37  4  0
 37 38  4  0
  6 39  4  0
 39 40  4  0
 40 41  4  0
 41 42  4  0
 42  1  4  0
 40  3  4  0
 38  7  4  0
 37 10  4  0
 35 12  4  0
 33 14  4  0
 31 16  4  0
 29 20  4  0
 28 23  4  0
  1 43  1  0
  2 44  1  0
  4 45  1  0
  5 46  1  0
  8 47  1  0
  9 48  1  0
 11 49  1  0
 13 50  1  0
 15 51  1  0
 17 52  1  0
 18 53  1  0
 21 54  1  0
 22 55  1  0
 24 56  1  0
 25 57  1  0
 26 58  1  0
 27 59  1  0
 29 60  1  0
 30 61  1  0
 32 62  1  0
 34 63  1  0
 36 64  1  0
 38 65  1  0
 39 66  1  0
 41 67  1  0
 42 68  1  0
M  END
