
     RDKit          3D

 68 76  0  0  0  0  0  0  0  0999 V2000
    9.4351   -3.0565   -0.3497 C   0  0  0  0  0  0  0  0  0  0  0  0
    8.2342   -2.7626   -0.9809 C   0  0  0  0  0  0  0  0  0  0  0  0
    7.5508   -1.5867   -0.6634 C   0  0  0  0  0  0  0  0  0  0  0  0
    8.0482   -0.6717    0.2949 C   0  0  0  0  0  0  0  0  0  0  0  0
    9.2775   -0.9878    0.9282 C   0  0  0  0  0  0  0  0  0  0  0  0
    9.9528   -2.1747    0.5978 C   0  0  0  0  0  0  0  0  0  0  0  0
    9.8171   -0.1139    1.8835 C   0  0  0  0  0  0  0  0  0  0  0  0
    9.1629    1.0666    2.2233 C   0  0  0  0  0  0  0  0  0  0  0  0
    7.9563    1.3886    1.6108 C   0  0  0  0  0  0  0  0  0  0  0  0
    7.3822    0.5377    0.6483 C   0  0  0  0  0  0  0  0  0  0  0  0
    6.1018    0.9381    0.0443 C   0  0  0  0  0  0  0  0  0  0  0  0
    6.0711    1.7769   -1.0759 C   0  0  0  0  0  0  0  0  0  0  0  0
    4.8542    2.1568   -1.6473 C   0  0  0  0  0  0  0  0  0  0  0  0
    3.6383    1.7075   -1.1102 C   0  0  0  0  0  0  0  0  0  0  0  0
    2.4067    2.0795   -1.6737 C   0  0  0  0  0  0  0  0  0  0  0  0
    1.1891    1.6291   -1.1362 C   0  0  0  0  0  0  0  0  0  0  0  0
   -0.0433    2.0010   -1.6994 C   0  0  0  0  0  0  0  0  0  0  0  0
   -1.2610    1.5502   -1.1626 C   0  0  0  0  0  0  0  0  0  0  0  0
   -2.4929    1.9223   -1.7266 C   0  0  0  0  0  0  0  0  0  0  0  0
   -3.7099    1.4713   -1.1897 C   0  0  0  0  0  0  0  0  0  0  0  0
   -4.9401    1.8426   -1.7531 C   0  0  0  0  0  0  0  0  0  0  0  0
   -6.1423    1.3852   -1.2080 C   0  0  0  0  0  0  0  0  0  0  0  0
   -6.1435    0.5448   -0.0886 C   0  0  0  0  0  0  0  0  0  0  0  0
   -7.4085    0.0635    0.4881 C   0  0  0  0  0  0  0  0  0  0  0  0
   -8.0442    0.8651    1.4541 C   0  0  0  0  0  0  0  0  0  0  0  0
   -9.2407    0.4667    2.0409 C   0  0  0  0  0  0  0  0  0  0  0  0
   -9.8229   -0.7421    1.6713 C   0  0  0  0  0  0  0  0  0  0  0  0
   -9.2204   -1.5689    0.7116 C   0  0  0  0  0  0  0  0  0  0  0  0
   -9.8235   -2.7856    0.3510 C   0  0  0  0  0  0  0  0  0  0  0  0
   -9.2421   -3.6217   -0.6009 C   0  0  0  0  0  0  0  0  0  0  0  0
   -8.0486   -3.2519   -1.2059 C   0  0  0  0  0  0  0  0  0  0  0  0
   -7.4367   -2.0455   -0.8583 C   0  0  0  0  0  0  0  0  0  0  0  0
   -8.0003   -1.1750    0.1047 C   0  0  0  0  0  0  0  0  0  0  0  0
   -4.9130    0.1755    0.4771 C   0  0  0  0  0  0  0  0  0  0  0  0
   -3.6953    0.6271   -0.0604 C   0  0  0  0  0  0  0  0  0  0  0  0
   -2.4632    0.2555    0.5026 C   0  0  0  0  0  0  0  0  0  0  0  0
   -1.2459    0.7068   -0.0348 C   0  0  0  0  0  0  0  0  0  0  0  0
   -0.0135    0.3349    0.5283 C   0  0  0  0  0  0  0  0  0  0  0  0
    1.2041    0.7859   -0.0082 C   0  0  0  0  0  0  0  0  0  0  0  0
    2.4359    0.4137    0.5560 C   0  0  0  0  0  0  0  0  0  0  0  0
    3.6533    0.8639    0.0195 C   0  0  0  0  0  0  0  0  0  0  0  0
    4.8855    0.4911    0.5838 C   0  0  0  0  0  0  0  0  0  0  0  0
    9.9708   -3.9700   -0.5933 H   0  0  0  0  0  0  0  0  0  0  0  0
    7.8246   -3.4443   -1.7216 H   0  0  0  0  0  0  0  0  0  0  0  0
    6.6132   -1.3884   -1.1794 H   0  0  0  0  0  0  0  0  0  0  0  0
   10.8958   -2.4228    1.0803 H   0  0  0  0  0  0  0  0  0  0  0  0
   10.7596   -0.3488    2.3738 H   0  0  0  0  0  0  0  0  0  0  0  0
    9.5925    1.7342    2.9653 H   0  0  0  0  0  0  0  0  0  0  0  0
    7.4528    2.3137    1.8865 H   0  0  0  0  0  0  0  0  0  0  0  0
    7.0009    2.1362   -1.5125 H   0  0  0  0  0  0  0  0  0  0  0  0
    4.8649    2.8080   -2.5185 H   0  0  0  0  0  0  0  0  0  0  0  0
    2.3964    2.7304   -2.5461 H   0  0  0  0  0  0  0  0  0  0  0  0
   -0.0549    2.6529   -2.5711 H   0  0  0  0  0  0  0  0  0  0  0  0
   -2.5056    2.5739   -2.5984 H   0  0  0  0  0  0  0  0  0  0  0  0
   -4.9733    2.4929   -2.6244 H   0  0  0  0  0  0  0  0  0  0  0  0
   -7.0836    1.6853   -1.6644 H   0  0  0  0  0  0  0  0  0  0  0  0
   -7.5976    1.8121    1.7524 H   0  0  0  0  0  0  0  0  0  0  0  0
   -9.7187    1.0972    2.7859 H   0  0  0  0  0  0  0  0  0  0  0  0
  -10.7587   -1.0368    2.1417 H   0  0  0  0  0  0  0  0  0  0  0  0
  -10.7592   -3.0934    0.8131 H   0  0  0  0  0  0  0  0  0  0  0  0
   -9.7222   -4.5592   -0.8682 H   0  0  0  0  0  0  0  0  0  0  0  0
   -7.5893   -3.8980   -1.9494 H   0  0  0  0  0  0  0  0  0  0  0  0
   -6.5026   -1.7877   -1.3540 H   0  0  0  0  0  0  0  0  0  0  0  0
   -4.9104   -0.4776    1.3487 H   0  0  0  0  0  0  0  0  0  0  0  0
   -2.4523   -0.3965    1.3744 H   0  0  0  0  0  0  0  0  0  0  0  0
   -0.0020   -0.3176    1.3997 H   0  0  0  0  0  0  0  0  0  0  0  0
    2.4478   -0.2382    1.4279 H   0  0  0  0  0  0  0  0  0  0  0  0
    4.9058   -0.1609    1.4561 H   0  0  0  0  0  0  0  0  0  0  0  0
  1  2  4  0
  2  3  4  0
  3  4  4  0
  4  5  4  0
  5  6  4  0
  5  7  4  0
  7  8  4  0
  8  9  4  0
  9 10  4  0
 10 11  1  0
 11 12  4  0
 12 13  4  0
 13 14  4  0
 14 15  4  0
 15 16  4  0
 16 17  4  0
 17 18  4  0
 18 19  4  0
 19 20  4  0
 20 21  4  0
 21 22  4  0
 22 23  4  0
 23 24  1  0
 24 25  4  0
 25 26  4  0
 26 27  4  0
 27 28  4  0
 28 29  4  0
 29 30  4  0
 30 31  4  0
 31 32  4  0
 32 33  4  0
 23 34  4  0
 34 35  4  0
 35 36  4  0
 36 37  4  0
 37 38  4  0
 38 39  4  0
 39 40  4  0
 40 41  4  0
 41 42  4  0
  6  1  4  0
 42 11  4  0
 10  4  4  0
 41 14  4  0
 39 16  4  0
 37 18  4  0
 35 20  4  0
 33 24  4  0
 33 28  4  0
  1 43  1  0
  2 44  1  0
  3 45  1  0
  6 46  1  0
  7 47  1  0
  8 48  1  0
  9 49  1  0
 12 50  1  0
 13 51  1  0
 15 52  1  0
 17 53  1  0
 19 54  1  0
 21 55  1  0
 22 56  1  0
 25 57  1  0
 26 58  1  0
 27 59  1  0
 29 60  1  0
 30 61  1  0
 31 62  1  0
 32 63  1  0
 34 64  1  0
 36 65  1  0
 38 66  1  0
 40 67  1  0
 42 68  1  0
M  END
