
     RDKit          3D

 68 76  0  0  0  0  0  0  0  0999 V2000
   12.1035   -1.0710   -1.6159 C   0  0  0  0  0  0  0  0  0  0  0  0
   11.8575   -1.7382   -0.4197 C   0  0  0  0  0  0  0  0  0  0  0  0
   10.6341   -1.5733    0.2319 C   0  0  0  0  0  0  0  0  0  0  0  0
    9.6406   -0.7382   -0.3051 C   0  0  0  0  0  0  0  0  0  0  0  0
    8.4026   -0.5615    0.3387 C   0  0  0  0  0  0  0  0  0  0  0  0
    7.4043    0.2704   -0.1965 C   0  0  0  0  0  0  0  0  0  0  0  0
    6.1143    0.4426    0.4894 C   0  0  0  0  0  0  0  0  0  0  0  0
    6.0561    0.8850    1.8178 C   0  0  0  0  0  0  0  0  0  0  0  0
    4.8294    1.0517    2.4673 C   0  0  0  0  0  0  0  0  0  0  0  0
    3.6242    0.7781    1.8048 C   0  0  0  0  0  0  0  0  0  0  0  0
    2.3833    0.9406    2.4425 C   0  0  0  0  0  0  0  0  0  0  0  0
    1.1767    0.6650    1.7774 C   0  0  0  0  0  0  0  0  0  0  0  0
   -0.0652    0.8278    2.4139 C   0  0  0  0  0  0  0  0  0  0  0  0
   -1.2720    0.5517    1.7491 C   0  0  0  0  0  0  0  0  0  0  0  0
   -2.5138    0.7153    2.3855 C   0  0  0  0  0  0  0  0  0  0  0  0
   -3.7197    0.4390    1.7201 C   0  0  0  0  0  0  0  0  0  0  0  0
   -4.9597    0.6035    2.3537 C   0  0  0  0  0  0  0  0  0  0  0  0
   -6.1510    0.3244    1.6772 C   0  0  0  0  0  0  0  0  0  0  0  0
   -6.1382   -0.1282    0.3511 C   0  0  0  0  0  0  0  0  0  0  0  0
   -7.3917   -0.4244   -0.3603 C   0  0  0  0  0  0  0  0  0  0  0  0
   -8.3991    0.5477   -0.4854 C   0  0  0  0  0  0  0  0  0  0  0  0
   -9.6034    0.2813   -1.1614 C   0  0  0  0  0  0  0  0  0  0  0  0
  -10.6061    1.2570   -1.2861 C   0  0  0  0  0  0  0  0  0  0  0  0
  -11.7960    0.9763   -1.9599 C   0  0  0  0  0  0  0  0  0  0  0  0
  -11.9989   -0.2824   -2.5176 C   0  0  0  0  0  0  0  0  0  0  0  0
  -11.0121   -1.2628   -2.4033 C   0  0  0  0  0  0  0  0  0  0  0  0
   -9.8097   -0.9952   -1.7290 C   0  0  0  0  0  0  0  0  0  0  0  0
   -8.8077   -1.9678   -1.6063 C   0  0  0  0  0  0  0  0  0  0  0  0
   -7.6161   -1.6845   -0.9320 C   0  0  0  0  0  0  0  0  0  0  0  0
   -4.8928   -0.2913   -0.2791 C   0  0  0  0  0  0  0  0  0  0  0  0
   -3.6846   -0.0135    0.3862 C   0  0  0  0  0  0  0  0  0  0  0  0
   -2.4424   -0.1757   -0.2498 C   0  0  0  0  0  0  0  0  0  0  0  0
   -1.2359    0.1013    0.4153 C   0  0  0  0  0  0  0  0  0  0  0  0
    0.0060   -0.0613   -0.2213 C   0  0  0  0  0  0  0  0  0  0  0  0
    1.2126    0.2153    0.4433 C   0  0  0  0  0  0  0  0  0  0  0  0
    2.4541    0.0531   -0.1943 C   0  0  0  0  0  0  0  0  0  0  0  0
    3.6608    0.3301    0.4694 C   0  0  0  0  0  0  0  0  0  0  0  0
    4.9036    0.1693   -0.1695 C   0  0  0  0  0  0  0  0  0  0  0  0
    7.6726    0.9312   -1.4033 C   0  0  0  0  0  0  0  0  0  0  0  0
    8.8980    0.7689   -2.0565 C   0  0  0  0  0  0  0  0  0  0  0  0
    9.8908   -0.0625   -1.5197 C   0  0  0  0  0  0  0  0  0  0  0  0
   11.1266   -0.2380   -2.1633 C   0  0  0  0  0  0  0  0  0  0  0  0
   13.0553   -1.1985   -2.1247 H   0  0  0  0  0  0  0  0  0  0  0  0
   12.6168   -2.3879    0.0075 H   0  0  0  0  0  0  0  0  0  0  0  0
   10.4604   -2.1038    1.1655 H   0  0  0  0  0  0  0  0  0  0  0  0
    8.2065   -1.0914    1.2696 H   0  0  0  0  0  0  0  0  0  0  0  0
    6.9726    1.1171    2.3570 H   0  0  0  0  0  0  0  0  0  0  0  0
    4.8250    1.4010    3.4974 H   0  0  0  0  0  0  0  0  0  0  0  0
    2.3571    1.2872    3.4740 H   0  0  0  0  0  0  0  0  0  0  0  0
   -0.0932    1.1756    3.4451 H   0  0  0  0  0  0  0  0  0  0  0  0
   -2.5433    1.0640    3.4161 H   0  0  0  0  0  0  0  0  0  0  0  0
   -5.0107    0.9490    3.3838 H   0  0  0  0  0  0  0  0  0  0  0  0
   -7.0959    0.4522    2.2019 H   0  0  0  0  0  0  0  0  0  0  0  0
   -8.2366    1.5357   -0.0572 H   0  0  0  0  0  0  0  0  0  0  0  0
  -10.4660    2.2468   -0.8574 H   0  0  0  0  0  0  0  0  0  0  0  0
  -12.5630    1.7412   -2.0485 H   0  0  0  0  0  0  0  0  0  0  0  0
  -12.9248   -0.5025   -3.0425 H   0  0  0  0  0  0  0  0  0  0  0  0
  -11.1882   -2.2405   -2.8460 H   0  0  0  0  0  0  0  0  0  0  0  0
   -8.9468   -2.9585   -2.0331 H   0  0  0  0  0  0  0  0  0  0  0  0
   -6.8634   -2.4658   -0.8452 H   0  0  0  0  0  0  0  0  0  0  0  0
   -4.8654   -0.6309   -1.3136 H   0  0  0  0  0  0  0  0  0  0  0  0
   -2.4150   -0.5236   -1.2810 H   0  0  0  0  0  0  0  0  0  0  0  0
    0.0339   -0.4093   -1.2524 H   0  0  0  0  0  0  0  0  0  0  0  0
    2.4829   -0.2951   -1.2253 H   0  0  0  0  0  0  0  0  0  0  0  0
    4.9316   -0.1870   -1.1983 H   0  0  0  0  0  0  0  0  0  0  0  0
    6.9273    1.5923   -1.8415 H   0  0  0  0  0  0  0  0  0  0  0  0
    9.0705    1.3011   -2.9892 H   0  0  0  0  0  0  0  0  0  0  0  0
   11.3369    0.2747   -3.0992 H   0  0  0  0  0  0  0  0  0  0  0  0
  1  2  4  0
  2  3  4  0
  3  4  4  0
  4  5  4  0
  5  6  4  0
  6  7  1  0
  7  8  4  0
  8  9  4  0
  9 10  4  0
 10 11  4  0
 11 12  4  0
 12 13  4  0
 13 14  4  0
 14 15  4  0
 15 16  4  0
 16 17  4  0
 17 18  4  0
 18 19  4  0
 19 20  1  0
 20 21  4  0
 21 22  4  0
 22 23  4  0
 23 24  4  0
 24 25  4  0
 25 26  4  0
 26 27  4  0
 27 28  4  0
 28 29  4  0
 19 30  4  0
 30 31  4  0
 31 32  4  0
 32 33  4  0
 33 34  4  0
 34 35  4  0
 35 36  4  0
 36 37  4  0
 37 38  4  0
  6 39  4  0
 39 40  4  0
 40 41  4  0
 41 42  4  0
 42  1  4  0
 41  4  4  0
 38  7  4  0
 37 10  4  0
 35 12  4  0
 33 14  4  0
 31 16  4  0
 29 20  4  0
 27 22  4  0
  1 43  1  0
  2 44  1  0
  3 45  1  0
  5 46  1  0
  8 47  1  0
  9 48  1  0
 11 49  1  0
 13 50  1  0
 15 51  1  0
 17 52  1  0
 18 53  1  0
 21 54  1  0
 23 55  1  0
 24 56  1  0
 25 57  1  0
 26 58  1  0
 28 59  1  0
 29 60  1  0
 30 61  1  0
 32 62  1  0
 34 63  1  0
 36 64  1  0
 38 65  1  0
 39 66  1  0
 40 67  1  0
 42 68  1  0
M  END
