
     RDKit          3D

 68 76  0  0  0  0  0  0  0  0999 V2000
   -9.0820    4.0472   -1.0441 C   0  0  0  0  0  0  0  0  0  0  0  0
   -9.6314    3.0252   -1.8169 C   0  0  0  0  0  0  0  0  0  0  0  0
   -9.0620    1.7408   -1.8300 C   0  0  0  0  0  0  0  0  0  0  0  0
   -9.6302    0.7269   -2.6154 C   0  0  0  0  0  0  0  0  0  0  0  0
   -9.0796   -0.5511   -2.6414 C   0  0  0  0  0  0  0  0  0  0  0  0
   -7.9505   -0.8324   -1.8794 C   0  0  0  0  0  0  0  0  0  0  0  0
   -7.3515    0.1572   -1.0785 C   0  0  0  0  0  0  0  0  0  0  0  0
   -6.1584   -0.2095   -0.2997 C   0  0  0  0  0  0  0  0  0  0  0  0
   -6.2804   -0.7144    1.0001 C   0  0  0  0  0  0  0  0  0  0  0  0
   -5.1462   -1.0630    1.7376 C   0  0  0  0  0  0  0  0  0  0  0  0
   -3.8621   -0.9166    1.1908 C   0  0  0  0  0  0  0  0  0  0  0  0
   -2.7116   -1.2616    1.9191 C   0  0  0  0  0  0  0  0  0  0  0  0
   -1.4260   -1.1148    1.3710 C   0  0  0  0  0  0  0  0  0  0  0  0
   -0.2747   -1.4594    2.0991 C   0  0  0  0  0  0  0  0  0  0  0  0
    1.0110   -1.3133    1.5514 C   0  0  0  0  0  0  0  0  0  0  0  0
    2.1619   -1.6583    2.2802 C   0  0  0  0  0  0  0  0  0  0  0  0
    3.4468   -1.5132    1.7320 C   0  0  0  0  0  0  0  0  0  0  0  0
    4.5959   -1.8584    2.4595 C   0  0  0  0  0  0  0  0  0  0  0  0
    5.8671   -1.7088    1.8998 C   0  0  0  0  0  0  0  0  0  0  0  0
    6.0203   -1.2090    0.6013 C   0  0  0  0  0  0  0  0  0  0  0  0
    7.3580   -1.0547    0.0089 C   0  0  0  0  0  0  0  0  0  0  0  0
    8.1110    0.1495    0.1253 C   0  0  0  0  0  0  0  0  0  0  0  0
    7.6491    1.2963    0.8139 C   0  0  0  0  0  0  0  0  0  0  0  0
    8.4187    2.4582    0.9052 C   0  0  0  0  0  0  0  0  0  0  0  0
    9.6722    2.5063    0.3104 C   0  0  0  0  0  0  0  0  0  0  0  0
   10.1559    1.3932   -0.3753 C   0  0  0  0  0  0  0  0  0  0  0  0
    9.3940    0.2169   -0.4762 C   0  0  0  0  0  0  0  0  0  0  0  0
    9.8997   -0.8917   -1.1711 C   0  0  0  0  0  0  0  0  0  0  0  0
    9.1593   -2.0651   -1.2815 C   0  0  0  0  0  0  0  0  0  0  0  0
    7.8999   -2.1448   -0.6965 C   0  0  0  0  0  0  0  0  0  0  0  0
    4.8710   -0.8653   -0.1275 C   0  0  0  0  0  0  0  0  0  0  0  0
    3.5852   -1.0102    0.4219 C   0  0  0  0  0  0  0  0  0  0  0  0
    2.4343   -0.6648   -0.3056 C   0  0  0  0  0  0  0  0  0  0  0  0
    1.1489   -0.8104    0.2431 C   0  0  0  0  0  0  0  0  0  0  0  0
   -0.0024   -0.4654   -0.4848 C   0  0  0  0  0  0  0  0  0  0  0  0
   -1.2880   -0.6113    0.0630 C   0  0  0  0  0  0  0  0  0  0  0  0
   -2.4385   -0.2658   -0.6658 C   0  0  0  0  0  0  0  0  0  0  0  0
   -3.7239   -0.4120   -0.1185 C   0  0  0  0  0  0  0  0  0  0  0  0
   -4.8744   -0.0657   -0.8480 C   0  0  0  0  0  0  0  0  0  0  0  0
   -7.9102    1.4679   -1.0482 C   0  0  0  0  0  0  0  0  0  0  0  0
   -7.3771    2.5266   -0.2752 C   0  0  0  0  0  0  0  0  0  0  0  0
   -7.9547    3.7982   -0.2732 C   0  0  0  0  0  0  0  0  0  0  0  0
   -9.5349    5.0349   -1.0458 H   0  0  0  0  0  0  0  0  0  0  0  0
  -10.5147    3.2408   -2.4144 H   0  0  0  0  0  0  0  0  0  0  0  0
  -10.5134    0.9278   -3.2182 H   0  0  0  0  0  0  0  0  0  0  0  0
   -9.5297   -1.3267   -3.2552 H   0  0  0  0  0  0  0  0  0  0  0  0
   -7.5281   -1.8355   -1.9084 H   0  0  0  0  0  0  0  0  0  0  0  0
   -7.2654   -0.8354    1.4468 H   0  0  0  0  0  0  0  0  0  0  0  0
   -5.2755   -1.4506    2.7456 H   0  0  0  0  0  0  0  0  0  0  0  0
   -2.8188   -1.6511    2.9299 H   0  0  0  0  0  0  0  0  0  0  0  0
   -0.3805   -1.8483    3.1102 H   0  0  0  0  0  0  0  0  0  0  0  0
    2.0558   -2.0469    3.2915 H   0  0  0  0  0  0  0  0  0  0  0  0
    4.5116   -2.2482    3.4715 H   0  0  0  0  0  0  0  0  0  0  0  0
    6.7432   -1.9824    2.4846 H   0  0  0  0  0  0  0  0  0  0  0  0
    6.6715    1.2948    1.2924 H   0  0  0  0  0  0  0  0  0  0  0  0
    8.0344    3.3218    1.4415 H   0  0  0  0  0  0  0  0  0  0  0  0
   10.2747    3.4080    0.3787 H   0  0  0  0  0  0  0  0  0  0  0  0
   11.1406    1.4512   -0.8344 H   0  0  0  0  0  0  0  0  0  0  0  0
   10.8828   -0.8484   -1.6354 H   0  0  0  0  0  0  0  0  0  0  0  0
    9.5631   -2.9163   -1.8229 H   0  0  0  0  0  0  0  0  0  0  0  0
    7.3298   -3.0677   -0.7898 H   0  0  0  0  0  0  0  0  0  0  0  0
    4.9866   -0.4766   -1.1383 H   0  0  0  0  0  0  0  0  0  0  0  0
    2.5414   -0.2763   -1.3169 H   0  0  0  0  0  0  0  0  0  0  0  0
    0.1039   -0.0767   -1.4962 H   0  0  0  0  0  0  0  0  0  0  0  0
   -2.3328    0.1238   -1.6769 H   0  0  0  0  0  0  0  0  0  0  0  0
   -4.7759    0.3265   -1.8593 H   0  0  0  0  0  0  0  0  0  0  0  0
   -6.4941    2.3681    0.3411 H   0  0  0  0  0  0  0  0  0  0  0  0
   -7.5200    4.5894    0.3319 H   0  0  0  0  0  0  0  0  0  0  0  0
  1  2  4  0
  2  3  4  0
  3  4  4  0
  4  5  4  0
  5  6  4  0
  6  7  4  0
  7  8  1  0
  8  9  4  0
  9 10  4  0
 10 11  4  0
 11 12  4  0
 12 13  4  0
 13 14  4  0
 14 15  4  0
 15 16  4  0
 16 17  4  0
 17 18  4  0
 18 19  4  0
 19 20  4  0
 20 21  1  0
 21 22  4  0
 22 23  4  0
 23 24  4  0
 24 25  4  0
 25 26  4  0
 26 27  4  0
 27 28  4  0
 28 29  4  0
 29 30  4  0
 20 31  4  0
 31 32  4  0
 32 33  4  0
 33 34  4  0
 34 35  4  0
 35 36  4  0
 36 37  4  0
 37 38  4  0
 38 39  4  0
  7 40  4  0
 40 41  4  0
 41 42  4  0
 42  1  4  0
 40  3  4  0
 39  8  4  0
 38 11  4  0
 36 13  4  0
 34 15  4  0
 32 17  4  0
 30 21  4  0
 27 22  4  0
  1 43  1  0
  2 44  1  0
  4 45  1  0
  5 46  1  0
  6 47  1  0
  9 48  1  0
 10 49  1  0
 12 50  1  0
 14 51  1  0
 16 52  1  0
 18 53  1  0
 19 54  1  0
 23 55  1  0
 24 56  1  0
 25 57  1  0
 26 58  1  0
 28 59  1  0
 29 60  1  0
 30 61  1  0
 31 62  1  0
 33 63  1  0
 35 64  1  0
 37 65  1  0
 39 66  1  0
 41 67  1  0
 42 68  1  0
M  END
