
     RDKit          3D

 80 90  0  0  0  0  0  0  0  0999 V2000
   14.2759   -2.7363    0.0401 C   0  0  0  0  0  0  0  0  0  0  0  0
   14.1138   -2.1570    1.2947 C   0  0  0  0  0  0  0  0  0  0  0  0
   12.9233   -1.5002    1.6104 C   0  0  0  0  0  0  0  0  0  0  0  0
   11.8793   -1.4145    0.6743 C   0  0  0  0  0  0  0  0  0  0  0  0
   10.6754   -0.7566    0.9769 C   0  0  0  0  0  0  0  0  0  0  0  0
    9.6314   -0.6706    0.0402 C   0  0  0  0  0  0  0  0  0  0  0  0
    8.4257   -0.0108    0.3422 C   0  0  0  0  0  0  0  0  0  0  0  0
    7.3770    0.0775   -0.5894 C   0  0  0  0  0  0  0  0  0  0  0  0
    6.1241    0.7745   -0.2566 C   0  0  0  0  0  0  0  0  0  0  0  0
    6.1337    2.1057    0.1814 C   0  0  0  0  0  0  0  0  0  0  0  0
    4.9435    2.7690    0.4948 C   0  0  0  0  0  0  0  0  0  0  0  0
    3.7073    2.1173    0.3797 C   0  0  0  0  0  0  0  0  0  0  0  0
    2.5025    2.7697    0.6906 C   0  0  0  0  0  0  0  0  0  0  0  0
    1.2642    2.1156    0.5759 C   0  0  0  0  0  0  0  0  0  0  0  0
    0.0585    2.7676    0.8861 C   0  0  0  0  0  0  0  0  0  0  0  0
   -1.1800    2.1136    0.7714 C   0  0  0  0  0  0  0  0  0  0  0  0
   -2.3856    2.7661    1.0798 C   0  0  0  0  0  0  0  0  0  0  0  0
   -3.6233    2.1117    0.9631 C   0  0  0  0  0  0  0  0  0  0  0  0
   -4.8277    2.7629    1.2666 C   0  0  0  0  0  0  0  0  0  0  0  0
   -6.0511    2.0981    1.1422 C   0  0  0  0  0  0  0  0  0  0  0  0
   -6.1063    0.7650    0.7145 C   0  0  0  0  0  0  0  0  0  0  0  0
   -7.3930    0.0658    0.5810 C   0  0  0  0  0  0  0  0  0  0  0  0
   -8.4019    0.5662   -0.2593 C   0  0  0  0  0  0  0  0  0  0  0  0
   -9.6382   -0.0896   -0.4019 C   0  0  0  0  0  0  0  0  0  0  0  0
  -10.6415    0.4138   -1.2468 C   0  0  0  0  0  0  0  0  0  0  0  0
  -11.8761   -0.2411   -1.3890 C   0  0  0  0  0  0  0  0  0  0  0  0
  -12.8796    0.2619   -2.2336 C   0  0  0  0  0  0  0  0  0  0  0  0
  -14.1012   -0.4003   -2.3645 C   0  0  0  0  0  0  0  0  0  0  0  0
  -14.3353   -1.5730   -1.6533 C   0  0  0  0  0  0  0  0  0  0  0  0
  -13.3483   -2.0855   -0.8101 C   0  0  0  0  0  0  0  0  0  0  0  0
  -12.1137   -1.4307   -0.6677 C   0  0  0  0  0  0  0  0  0  0  0  0
  -11.1101   -1.9343    0.1763 C   0  0  0  0  0  0  0  0  0  0  0  0
   -9.8756   -1.2787    0.3170 C   0  0  0  0  0  0  0  0  0  0  0  0
   -8.8719   -1.7814    1.1574 C   0  0  0  0  0  0  0  0  0  0  0  0
   -7.6480   -1.1180    1.2857 C   0  0  0  0  0  0  0  0  0  0  0  0
   -4.8970    0.1160    0.4135 C   0  0  0  0  0  0  0  0  0  0  0  0
   -3.6574    0.7711    0.5301 C   0  0  0  0  0  0  0  0  0  0  0  0
   -2.4515    0.1196    0.2218 C   0  0  0  0  0  0  0  0  0  0  0  0
   -1.2135    0.7746    0.3366 C   0  0  0  0  0  0  0  0  0  0  0  0
   -0.0080    0.1228    0.0263 C   0  0  0  0  0  0  0  0  0  0  0  0
    1.2306    0.7768    0.1403 C   0  0  0  0  0  0  0  0  0  0  0  0
    2.4361    0.1247   -0.1709 C   0  0  0  0  0  0  0  0  0  0  0  0
    3.6749    0.7783   -0.0576 C   0  0  0  0  0  0  0  0  0  0  0  0
    4.8824    0.1262   -0.3699 C   0  0  0  0  0  0  0  0  0  0  0  0
    7.5610   -0.5162   -1.8454 C   0  0  0  0  0  0  0  0  0  0  0  0
    8.7528   -1.1748   -2.1627 C   0  0  0  0  0  0  0  0  0  0  0  0
    9.7961   -1.2595   -1.2297 C   0  0  0  0  0  0  0  0  0  0  0  0
   10.9996   -1.9174   -1.5339 C   0  0  0  0  0  0  0  0  0  0  0  0
   12.0437   -2.0024   -0.5981 C   0  0  0  0  0  0  0  0  0  0  0  0
   13.2478   -2.6599   -0.9007 C   0  0  0  0  0  0  0  0  0  0  0  0
   15.2019   -3.2484   -0.2078 H   0  0  0  0  0  0  0  0  0  0  0  0
   14.9128   -2.2156    2.0290 H   0  0  0  0  0  0  0  0  0  0  0  0
   12.8159   -1.0539    2.5965 H   0  0  0  0  0  0  0  0  0  0  0  0
   10.5489   -0.3037    1.9586 H   0  0  0  0  0  0  0  0  0  0  0  0
    8.2953    0.4346    1.3275 H   0  0  0  0  0  0  0  0  0  0  0  0
    7.0748    2.6451    0.2706 H   0  0  0  0  0  0  0  0  0  0  0  0
    4.9925    3.8035    0.8275 H   0  0  0  0  0  0  0  0  0  0  0  0
    2.5298    3.8044    1.0278 H   0  0  0  0  0  0  0  0  0  0  0  0
    0.0847    3.8026    1.2224 H   0  0  0  0  0  0  0  0  0  0  0  0
   -2.3613    3.8015    1.4149 H   0  0  0  0  0  0  0  0  0  0  0  0
   -4.8254    3.7967    1.6051 H   0  0  0  0  0  0  0  0  0  0  0  0
   -6.9670    2.6294    1.3939 H   0  0  0  0  0  0  0  0  0  0  0  0
   -8.2142    1.4792   -0.8227 H   0  0  0  0  0  0  0  0  0  0  0  0
  -10.4581    1.3308   -1.8038 H   0  0  0  0  0  0  0  0  0  0  0  0
  -12.7154    1.1771   -2.7980 H   0  0  0  0  0  0  0  0  0  0  0  0
  -14.8684    0.0004   -3.0219 H   0  0  0  0  0  0  0  0  0  0  0  0
  -15.2857   -2.0904   -1.7539 H   0  0  0  0  0  0  0  0  0  0  0  0
  -13.5502   -3.0035   -0.2628 H   0  0  0  0  0  0  0  0  0  0  0  0
  -11.2928   -2.8521    0.7321 H   0  0  0  0  0  0  0  0  0  0  0  0
   -9.0343   -2.6959    1.7236 H   0  0  0  0  0  0  0  0  0  0  0  0
   -6.8943   -1.5295    1.9542 H   0  0  0  0  0  0  0  0  0  0  0  0
   -4.9249   -0.9168    0.0686 H   0  0  0  0  0  0  0  0  0  0  0  0
   -2.4776   -0.9154   -0.1148 H   0  0  0  0  0  0  0  0  0  0  0  0
   -0.0344   -0.9121   -0.3104 H   0  0  0  0  0  0  0  0  0  0  0  0
    2.4105   -0.9102   -0.5076 H   0  0  0  0  0  0  0  0  0  0  0  0
    4.8574   -0.9123   -0.6975 H   0  0  0  0  0  0  0  0  0  0  0  0
    6.7766   -0.4588   -2.5976 H   0  0  0  0  0  0  0  0  0  0  0  0
    8.8591   -1.6194   -3.1498 H   0  0  0  0  0  0  0  0  0  0  0  0
   11.1259   -2.3712   -2.5151 H   0  0  0  0  0  0  0  0  0  0  0  0
   13.3933   -3.1192   -1.8759 H   0  0  0  0  0  0  0  0  0  0  0  0
  1  2  4  0
  2  3  4  0
  3  4  4  0
  4  5  4  0
  5  6  4  0
  6  7  4  0
  7  8  4  0
  8  9  1  0
  9 10  4  0
 10 11  4  0
 11 12  4  0
 12 13  4  0
 13 14  4  0
 14 15  4  0
 15 16  4  0
 16 17  4  0
 17 18  4  0
 18 19  4  0
 19 20  4  0
 20 21  4  0
 21 22  1  0
 22 23  4  0
 23 24  4  0
 24 25  4  0
 25 26  4  0
 26 27  4  0
 27 28  4  0
 28 29  4  0
 29 30  4  0
 30 31  4  0
 31 32  4  0
 32 33  4  0
 33 34  4  0
 34 35  4  0
 21 36  4  0
 36 37  4  0
 37 38  4  0
 38 39  4  0
 39 40  4  0
 40 41  4  0
 41 42  4  0
 42 43  4  0
 43 44  4  0
  8 45  4  0
 45 46  4  0
 46 47  4  0
 47 48  4  0
 48 49  4  0
 49 50  4  0
 50  1  4  0
 49  4  4  0
 47  6  4  0
 44  9  4  0
 43 12  4  0
 41 14  4  0
 39 16  4  0
 37 18  4  0
 35 22  4  0
 33 24  4  0
 31 26  4  0
  1 51  1  0
  2 52  1  0
  3 53  1  0
  5 54  1  0
  7 55  1  0
 10 56  1  0
 11 57  1  0
 13 58  1  0
 15 59  1  0
 17 60  1  0
 19 61  1  0
 20 62  1  0
 23 63  1  0
 25 64  1  0
 27 65  1  0
 28 66  1  0
 29 67  1  0
 30 68  1  0
 32 69  1  0
 34 70  1  0
 35 71  1  0
 36 72  1  0
 38 73  1  0
 40 74  1  0
 42 75  1  0
 44 76  1  0
 45 77  1  0
 46 78  1  0
 48 79  1  0
 50 80  1  0
M  END
