
     RDKit          3D

100114  0  0  0  0  0  0  0  0999 V2000
   -7.4139    6.5355   -2.2737 C   0  0  0  0  0  0  0  0  0  0  0  0
   -6.3146    6.2577   -1.4742 C   0  0  0  0  0  0  0  0  0  0  0  0
   -6.1338    4.9701   -0.9646 C   0  0  0  0  0  0  0  0  0  0  0  0
   -7.0469    3.9216   -1.2385 C   0  0  0  0  0  0  0  0  0  0  0  0
   -8.1562    4.2260   -2.0547 C   0  0  0  0  0  0  0  0  0  0  0  0
   -8.3289    5.5253   -2.5622 C   0  0  0  0  0  0  0  0  0  0  0  0
   -9.0832    3.2235   -2.3565 C   0  0  0  0  0  0  0  0  0  0  0  0
   -8.9513    1.9304   -1.8813 C   0  0  0  0  0  0  0  0  0  0  0  0
   -9.8895    1.0292   -2.2252 N   0  0  0  0  0  0  0  0  0  0  0  0
   -9.7531   -0.2248   -1.7615 C   0  0  0  0  0  0  0  0  0  0  0  0
  -10.6966   -1.1894   -2.0918 C   0  0  0  0  0  0  0  0  0  0  0  0
  -10.5935   -2.5111   -1.6318 C   0  0  0  0  0  0  0  0  0  0  0  0
  -11.5474   -3.4858   -1.9668 C   0  0  0  0  0  0  0  0  0  0  0  0
  -11.4226   -4.7943   -1.4979 C   0  0  0  0  0  0  0  0  0  0  0  0
  -10.3446   -5.1437   -0.6897 C   0  0  0  0  0  0  0  0  0  0  0  0
   -9.3896   -4.1852   -0.3486 C   0  0  0  0  0  0  0  0  0  0  0  0
   -9.5028   -2.8649   -0.8134 C   0  0  0  0  0  0  0  0  0  0  0  0
   -8.5554   -1.8845   -0.4841 C   0  0  0  0  0  0  0  0  0  0  0  0
   -8.6659   -0.5791   -0.9442 C   0  0  0  0  0  0  0  0  0  0  0  0
   -7.7332    0.3255   -0.6033 N   0  0  0  0  0  0  0  0  0  0  0  0
   -7.8547    1.5939   -1.0627 C   0  0  0  0  0  0  0  0  0  0  0  0
   -6.9061    2.5892   -0.7411 C   0  0  0  0  0  0  0  0  0  0  0  0
   -5.7595    2.2285    0.1198 C   0  0  0  0  0  0  0  0  0  0  0  0
   -5.8272    2.3944    1.5089 C   0  0  0  0  0  0  0  0  0  0  0  0
   -4.7378    2.0650    2.3189 C   0  0  0  0  0  0  0  0  0  0  0  0
   -3.5544    1.5600    1.7591 C   0  0  0  0  0  0  0  0  0  0  0  0
   -2.4496    1.2258    2.5593 C   0  0  0  0  0  0  0  0  0  0  0  0
   -1.2654    0.7180    1.9983 C   0  0  0  0  0  0  0  0  0  0  0  0
   -0.1597    0.3837    2.7985 C   0  0  0  0  0  0  0  0  0  0  0  0
    1.0246   -0.1246    2.2388 C   0  0  0  0  0  0  0  0  0  0  0  0
    2.1303   -0.4586    3.0389 C   0  0  0  0  0  0  0  0  0  0  0  0
    3.3131   -0.9679    2.4780 C   0  0  0  0  0  0  0  0  0  0  0  0
    4.4181   -1.2989    3.2767 C   0  0  0  0  0  0  0  0  0  0  0  0
    5.5862   -1.8085    2.7044 C   0  0  0  0  0  0  0  0  0  0  0  0
    5.6772   -2.0022    1.3202 C   0  0  0  0  0  0  0  0  0  0  0  0
    6.9036   -2.5635    0.7141 C   0  0  0  0  0  0  0  0  0  0  0  0
    7.8905   -1.6784    0.2271 C   0  0  0  0  0  0  0  0  0  0  0  0
    7.7376   -0.3342    0.3018 N   0  0  0  0  0  0  0  0  0  0  0  0
    8.7099    0.4571   -0.1818 C   0  0  0  0  0  0  0  0  0  0  0  0
    8.5698    1.8374   -0.1169 C   0  0  0  0  0  0  0  0  0  0  0  0
    9.5576    2.7035   -0.6095 C   0  0  0  0  0  0  0  0  0  0  0  0
    9.4149    4.0992   -0.5446 C   0  0  0  0  0  0  0  0  0  0  0  0
   10.4114    4.9404   -1.0416 C   0  0  0  0  0  0  0  0  0  0  0  0
   11.5608    4.3976   -1.6085 C   0  0  0  0  0  0  0  0  0  0  0  0
   11.7158    3.0125   -1.6797 C   0  0  0  0  0  0  0  0  0  0  0  0
   10.7208    2.1541   -1.1837 C   0  0  0  0  0  0  0  0  0  0  0  0
   10.8533    0.7586   -1.2446 C   0  0  0  0  0  0  0  0  0  0  0  0
    9.8698   -0.0915   -0.7550 C   0  0  0  0  0  0  0  0  0  0  0  0
   10.0390   -1.4220   -0.8355 N   0  0  0  0  0  0  0  0  0  0  0  0
    9.0614   -2.2088   -0.3506 C   0  0  0  0  0  0  0  0  0  0  0  0
    9.2288   -3.5801   -0.4316 C   0  0  0  0  0  0  0  0  0  0  0  0
    8.2660   -4.4769    0.0412 C   0  0  0  0  0  0  0  0  0  0  0  0
    8.4776   -5.8624   -0.0646 C   0  0  0  0  0  0  0  0  0  0  0  0
    7.5274   -6.7703    0.3975 C   0  0  0  0  0  0  0  0  0  0  0  0
    6.3535   -6.3029    0.9702 C   0  0  0  0  0  0  0  0  0  0  0  0
    6.1338   -4.9282    1.0806 C   0  0  0  0  0  0  0  0  0  0  0  0
    7.0814   -3.9792    0.6227 C   0  0  0  0  0  0  0  0  0  0  0  0
    4.5739   -1.6629    0.5202 C   0  0  0  0  0  0  0  0  0  0  0  0
    3.3924   -1.1490    1.0820 C   0  0  0  0  0  0  0  0  0  0  0  0
    2.2877   -0.8126    0.2827 C   0  0  0  0  0  0  0  0  0  0  0  0
    1.1048   -0.3032    0.8441 C   0  0  0  0  0  0  0  0  0  0  0  0
   -0.0004    0.0312    0.0439 C   0  0  0  0  0  0  0  0  0  0  0  0
   -1.1847    0.5394    0.6037 C   0  0  0  0  0  0  0  0  0  0  0  0
   -2.2901    0.8727   -0.1970 C   0  0  0  0  0  0  0  0  0  0  0  0
   -3.4733    1.3818    0.3628 C   0  0  0  0  0  0  0  0  0  0  0  0
   -4.5774    1.7169   -0.4395 C   0  0  0  0  0  0  0  0  0  0  0  0
   -7.5605    7.5353   -2.6736 H   0  0  0  0  0  0  0  0  0  0  0  0
   -5.5940    7.0383   -1.2440 H   0  0  0  0  0  0  0  0  0  0  0  0
   -5.2577    4.7919   -0.3428 H   0  0  0  0  0  0  0  0  0  0  0  0
   -9.1846    5.7620   -3.1920 H   0  0  0  0  0  0  0  0  0  0  0  0
   -9.9427    3.4481   -2.9860 H   0  0  0  0  0  0  0  0  0  0  0  0
  -11.5304   -0.8949   -2.7253 H   0  0  0  0  0  0  0  0  0  0  0  0
  -12.3968   -3.2317   -2.5975 H   0  0  0  0  0  0  0  0  0  0  0  0
  -12.1673   -5.5400   -1.7644 H   0  0  0  0  0  0  0  0  0  0  0  0
  -10.2456   -6.1625   -0.3240 H   0  0  0  0  0  0  0  0  0  0  0  0
   -8.5536   -4.4767    0.2840 H   0  0  0  0  0  0  0  0  0  0  0  0
   -7.7046   -2.1345    0.1465 H   0  0  0  0  0  0  0  0  0  0  0  0
   -6.7351    2.7788    1.9690 H   0  0  0  0  0  0  0  0  0  0  0  0
   -4.8246    2.2027    3.3942 H   0  0  0  0  0  0  0  0  0  0  0  0
   -2.5127    1.3637    3.6373 H   0  0  0  0  0  0  0  0  0  0  0  0
   -0.2250    0.5207    3.8764 H   0  0  0  0  0  0  0  0  0  0  0  0
    2.0706   -0.3195    4.1168 H   0  0  0  0  0  0  0  0  0  0  0  0
    4.3802   -1.1602    4.3548 H   0  0  0  0  0  0  0  0  0  0  0  0
    6.4298   -2.0536    3.3463 H   0  0  0  0  0  0  0  0  0  0  0  0
    7.6629    2.2388    0.3308 H   0  0  0  0  0  0  0  0  0  0  0  0
    8.5230    4.5417   -0.1055 H   0  0  0  0  0  0  0  0  0  0  0  0
   10.2894    6.0193   -0.9861 H   0  0  0  0  0  0  0  0  0  0  0  0
   12.3376    5.0518   -1.9961 H   0  0  0  0  0  0  0  0  0  0  0  0
   12.6211    2.6070   -2.1267 H   0  0  0  0  0  0  0  0  0  0  0  0
   11.7430    0.3128   -1.6840 H   0  0  0  0  0  0  0  0  0  0  0  0
   10.1462   -3.9541   -0.8834 H   0  0  0  0  0  0  0  0  0  0  0  0
    9.3917   -6.2481   -0.5125 H   0  0  0  0  0  0  0  0  0  0  0  0
    7.7046   -7.8388    0.3087 H   0  0  0  0  0  0  0  0  0  0  0  0
    5.6044   -7.0024    1.3323 H   0  0  0  0  0  0  0  0  0  0  0  0
    5.1988   -4.6019    1.5337 H   0  0  0  0  0  0  0  0  0  0  0  0
    4.6435   -1.8000   -0.5577 H   0  0  0  0  0  0  0  0  0  0  0  0
    2.3500   -0.9497   -0.7955 H   0  0  0  0  0  0  0  0  0  0  0  0
    0.0622   -0.1076   -1.0341 H   0  0  0  0  0  0  0  0  0  0  0  0
   -2.2297    0.7328   -1.2749 H   0  0  0  0  0  0  0  0  0  0  0  0
   -4.5239    1.5746   -1.5176 H   0  0  0  0  0  0  0  0  0  0  0  0
  1  2  4  0
  2  3  4  0
  3  4  4  0
  4  5  4  0
  5  6  4  0
  5  7  4  0
  7  8  4  0
  8  9  4  0
  9 10  4  0
 10 11  4  0
 11 12  4  0
 12 13  4  0
 13 14  4  0
 14 15  4  0
 15 16  4  0
 16 17  4  0
 17 18  4  0
 18 19  4  0
 19 20  4  0
 20 21  4  0
 21 22  4  0
 22 23  1  0
 23 24  4  0
 24 25  4  0
 25 26  4  0
 26 27  4  0
 27 28  4  0
 28 29  4  0
 29 30  4  0
 30 31  4  0
 31 32  4  0
 32 33  4  0
 33 34  4  0
 34 35  4  0
 35 36  1  0
 36 37  4  0
 37 38  4  0
 38 39  4  0
 39 40  4  0
 40 41  4  0
 41 42  4  0
 42 43  4  0
 43 44  4  0
 44 45  4  0
 45 46  4  0
 46 47  4  0
 47 48  4  0
 48 49  4  0
 49 50  4  0
 50 51  4  0
 51 52  4  0
 52 53  4  0
 53 54  4  0
 54 55  4  0
 55 56  4  0
 56 57  4  0
 35 58  4  0
 58 59  4  0
 59 60  4  0
 60 61  4  0
 61 62  4  0
 62 63  4  0
 63 64  4  0
 64 65  4  0
 65 66  4  0
  6  1  4  0
 21  8  4  0
 66 23  4  0
 22  4  4  0
 65 26  4  0
 19 10  4  0
 63 28  4  0
 17 12  4  0
 61 30  4  0
 59 32  4  0
 57 36  4  0
 50 37  4  0
 57 52  4  0
 48 39  4  0
 46 41  4  0
  1 67  1  0
  2 68  1  0
  3 69  1  0
  6 70  1  0
  7 71  1  0
 11 72  1  0
 13 73  1  0
 14 74  1  0
 15 75  1  0
 16 76  1  0
 18 77  1  0
 24 78  1  0
 25 79  1  0
 27 80  1  0
 29 81  1  0
 31 82  1  0
 33 83  1  0
 34 84  1  0
 40 85  1  0
 42 86  1  0
 43 87  1  0
 44 88  1  0
 45 89  1  0
 47 90  1  0
 51 91  1  0
 53 92  1  0
 54 93  1  0
 55 94  1  0
 56 95  1  0
 58 96  1  0
 60 97  1  0
 62 98  1  0
 64 99  1  0
 66100  1  0
M  END
