
     RDKit          3D

100114  0  0  0  0  0  0  0  0999 V2000
  -11.3046   -3.0130    4.6101 C   0  0  0  0  0  0  0  0  0  0  0  0
  -10.1783   -2.4452    5.1987 C   0  0  0  0  0  0  0  0  0  0  0  0
   -9.2438   -1.7721    4.4103 C   0  0  0  0  0  0  0  0  0  0  0  0
   -9.4264   -1.6593    3.0226 C   0  0  0  0  0  0  0  0  0  0  0  0
   -8.5012   -0.9871    2.2102 C   0  0  0  0  0  0  0  0  0  0  0  0
   -8.6809   -0.8746    0.8379 C   0  0  0  0  0  0  0  0  0  0  0  0
   -7.7683   -0.2210    0.0999 N   0  0  0  0  0  0  0  0  0  0  0  0
   -7.9585   -0.1214   -1.2376 C   0  0  0  0  0  0  0  0  0  0  0  0
   -9.1038   -0.7029   -1.8171 C   0  0  0  0  0  0  0  0  0  0  0  0
  -10.0219   -1.3583   -1.0835 N   0  0  0  0  0  0  0  0  0  0  0  0
   -9.8171   -1.4478    0.2417 C   0  0  0  0  0  0  0  0  0  0  0  0
  -10.7386   -2.1154    1.0389 C   0  0  0  0  0  0  0  0  0  0  0  0
  -10.5661   -2.2339    2.4264 C   0  0  0  0  0  0  0  0  0  0  0  0
  -11.4984   -2.9087    3.2319 C   0  0  0  0  0  0  0  0  0  0  0  0
   -9.3076   -0.6074   -3.1826 C   0  0  0  0  0  0  0  0  0  0  0  0
   -8.4081    0.0526   -4.0255 C   0  0  0  0  0  0  0  0  0  0  0  0
   -8.6559    0.1241   -5.4073 C   0  0  0  0  0  0  0  0  0  0  0  0
   -7.7703    0.7767   -6.2620 C   0  0  0  0  0  0  0  0  0  0  0  0
   -6.6256    1.3654   -5.7444 C   0  0  0  0  0  0  0  0  0  0  0  0
   -6.3699    1.3001   -4.3727 C   0  0  0  0  0  0  0  0  0  0  0  0
   -7.2512    0.6448   -3.4773 C   0  0  0  0  0  0  0  0  0  0  0  0
   -7.0349    0.5516   -2.0673 C   0  0  0  0  0  0  0  0  0  0  0  0
   -5.8355    1.1602   -1.4527 C   0  0  0  0  0  0  0  0  0  0  0  0
   -5.8570    2.4861   -1.0019 C   0  0  0  0  0  0  0  0  0  0  0  0
   -4.7177    3.0649   -0.4374 C   0  0  0  0  0  0  0  0  0  0  0  0
   -3.5295    2.3302   -0.3066 C   0  0  0  0  0  0  0  0  0  0  0  0
   -2.3756    2.8984    0.2578 C   0  0  0  0  0  0  0  0  0  0  0  0
   -1.1865    2.1617    0.3917 C   0  0  0  0  0  0  0  0  0  0  0  0
   -0.0313    2.7295    0.9552 C   0  0  0  0  0  0  0  0  0  0  0  0
    1.1583    1.9938    1.0891 C   0  0  0  0  0  0  0  0  0  0  0  0
    2.3143    2.5631    1.6500 C   0  0  0  0  0  0  0  0  0  0  0  0
    3.5034    1.8274    1.7800 C   0  0  0  0  0  0  0  0  0  0  0  0
    4.6594    2.3982    2.3336 C   0  0  0  0  0  0  0  0  0  0  0  0
    5.8369    1.6559    2.4488 C   0  0  0  0  0  0  0  0  0  0  0  0
    5.8864    0.3242    2.0173 C   0  0  0  0  0  0  0  0  0  0  0  0
    7.1338   -0.4610    2.1339 C   0  0  0  0  0  0  0  0  0  0  0  0
    7.4497   -1.1472    3.3468 C   0  0  0  0  0  0  0  0  0  0  0  0
    6.6207   -1.1465    4.4958 C   0  0  0  0  0  0  0  0  0  0  0  0
    6.9736   -1.8321    5.6603 C   0  0  0  0  0  0  0  0  0  0  0  0
    8.1659   -2.5398    5.7100 C   0  0  0  0  0  0  0  0  0  0  0  0
    9.0013   -2.5618    4.5954 C   0  0  0  0  0  0  0  0  0  0  0  0
    8.6554   -1.8759    3.4181 C   0  0  0  0  0  0  0  0  0  0  0  0
    9.5041   -1.9113    2.3069 C   0  0  0  0  0  0  0  0  0  0  0  0
    9.2016   -1.2538    1.1269 C   0  0  0  0  0  0  0  0  0  0  0  0
   10.0744   -1.3445    0.1065 N   0  0  0  0  0  0  0  0  0  0  0  0
    9.7718   -0.7035   -1.0357 C   0  0  0  0  0  0  0  0  0  0  0  0
   10.6430   -0.7687   -2.1161 C   0  0  0  0  0  0  0  0  0  0  0  0
   10.3674   -0.1159   -3.3274 C   0  0  0  0  0  0  0  0  0  0  0  0
   11.2484   -0.1825   -4.4191 C   0  0  0  0  0  0  0  0  0  0  0  0
   10.9524    0.4751   -5.6141 C   0  0  0  0  0  0  0  0  0  0  0  0
    9.7739    1.2062   -5.7322 C   0  0  0  0  0  0  0  0  0  0  0  0
    8.8893    1.2811   -4.6553 C   0  0  0  0  0  0  0  0  0  0  0  0
    9.1748    0.6243   -3.4472 C   0  0  0  0  0  0  0  0  0  0  0  0
    8.3012    0.6851   -2.3514 C   0  0  0  0  0  0  0  0  0  0  0  0
    8.5825    0.0359   -1.1566 C   0  0  0  0  0  0  0  0  0  0  0  0
    7.7162    0.1233   -0.1341 N   0  0  0  0  0  0  0  0  0  0  0  0
    8.0054   -0.5165    1.0243 C   0  0  0  0  0  0  0  0  0  0  0  0
    4.7288   -0.2470    1.4645 C   0  0  0  0  0  0  0  0  0  0  0  0
    3.5378    0.4884    1.3396 C   0  0  0  0  0  0  0  0  0  0  0  0
    2.3815   -0.0802    0.7806 C   0  0  0  0  0  0  0  0  0  0  0  0
    1.1927    0.6565    0.6491 C   0  0  0  0  0  0  0  0  0  0  0  0
    0.0380    0.0883    0.0858 C   0  0  0  0  0  0  0  0  0  0  0  0
   -1.1512    0.8245   -0.0487 C   0  0  0  0  0  0  0  0  0  0  0  0
   -2.3054    0.2559   -0.6136 C   0  0  0  0  0  0  0  0  0  0  0  0
   -3.4941    0.9919   -0.7491 C   0  0  0  0  0  0  0  0  0  0  0  0
   -4.6478    0.4232   -1.3163 C   0  0  0  0  0  0  0  0  0  0  0  0
  -12.0334   -3.5373    5.2229 H   0  0  0  0  0  0  0  0  0  0  0  0
  -10.0254   -2.5249    6.2719 H   0  0  0  0  0  0  0  0  0  0  0  0
   -8.3691   -1.3346    4.8876 H   0  0  0  0  0  0  0  0  0  0  0  0
   -7.6135   -0.5356    2.6485 H   0  0  0  0  0  0  0  0  0  0  0  0
  -11.6111   -2.5515    0.5576 H   0  0  0  0  0  0  0  0  0  0  0  0
  -12.3848   -3.3587    2.7897 H   0  0  0  0  0  0  0  0  0  0  0  0
  -10.2034   -1.0682   -3.5959 H   0  0  0  0  0  0  0  0  0  0  0  0
   -9.5486   -0.3325   -5.8312 H   0  0  0  0  0  0  0  0  0  0  0  0
   -7.9752    0.8237   -7.3283 H   0  0  0  0  0  0  0  0  0  0  0  0
   -5.9274    1.8764   -6.4023 H   0  0  0  0  0  0  0  0  0  0  0  0
   -5.4603    1.7735   -4.0058 H   0  0  0  0  0  0  0  0  0  0  0  0
   -6.7678    3.0754   -1.0848 H   0  0  0  0  0  0  0  0  0  0  0  0
   -4.7687    4.0964   -0.0962 H   0  0  0  0  0  0  0  0  0  0  0  0
   -2.4046    3.9314    0.5996 H   0  0  0  0  0  0  0  0  0  0  0  0
   -0.0571    3.7635    1.2943 H   0  0  0  0  0  0  0  0  0  0  0  0
    2.2901    3.5973    1.9883 H   0  0  0  0  0  0  0  0  0  0  0  0
    4.6566    3.4315    2.6729 H   0  0  0  0  0  0  0  0  0  0  0  0
    6.7226    2.1260    2.8711 H   0  0  0  0  0  0  0  0  0  0  0  0
    5.6758   -0.6053    4.4948 H   0  0  0  0  0  0  0  0  0  0  0  0
    6.3137   -1.8103    6.5238 H   0  0  0  0  0  0  0  0  0  0  0  0
    8.4463   -3.0754    6.6131 H   0  0  0  0  0  0  0  0  0  0  0  0
    9.9318   -3.1238    4.6529 H   0  0  0  0  0  0  0  0  0  0  0  0
   10.4371   -2.4709    2.3518 H   0  0  0  0  0  0  0  0  0  0  0  0
   11.5581   -1.3458   -2.0024 H   0  0  0  0  0  0  0  0  0  0  0  0
   12.1743   -0.7491   -4.3457 H   0  0  0  0  0  0  0  0  0  0  0  0
   11.6423    0.4157   -6.4521 H   0  0  0  0  0  0  0  0  0  0  0  0
    9.5421    1.7184   -6.6627 H   0  0  0  0  0  0  0  0  0  0  0  0
    7.9726    1.8570   -4.7651 H   0  0  0  0  0  0  0  0  0  0  0  0
    7.3744    1.2509   -2.4203 H   0  0  0  0  0  0  0  0  0  0  0  0
    4.7650   -1.2782    1.1169 H   0  0  0  0  0  0  0  0  0  0  0  0
    2.4086   -1.1134    0.4387 H   0  0  0  0  0  0  0  0  0  0  0  0
    0.0653   -0.9449   -0.2558 H   0  0  0  0  0  0  0  0  0  0  0  0
   -2.2791   -0.7781   -0.9531 H   0  0  0  0  0  0  0  0  0  0  0  0
   -4.6284   -0.6110   -1.6564 H   0  0  0  0  0  0  0  0  0  0  0  0
  1  2  4  0
  2  3  4  0
  3  4  4  0
  4  5  4  0
  5  6  4  0
  6  7  4  0
  7  8  4  0
  8  9  4  0
  9 10  4  0
 10 11  4  0
 11 12  4  0
 12 13  4  0
 13 14  4  0
  9 15  4  0
 15 16  4  0
 16 17  4  0
 17 18  4  0
 18 19  4  0
 19 20  4  0
 20 21  4  0
 21 22  4  0
 22 23  1  0
 23 24  4  0
 24 25  4  0
 25 26  4  0
 26 27  4  0
 27 28  4  0
 28 29  4  0
 29 30  4  0
 30 31  4  0
 31 32  4  0
 32 33  4  0
 33 34  4  0
 34 35  4  0
 35 36  1  0
 36 37  4  0
 37 38  4  0
 38 39  4  0
 39 40  4  0
 40 41  4  0
 41 42  4  0
 42 43  4  0
 43 44  4  0
 44 45  4  0
 45 46  4  0
 46 47  4  0
 47 48  4  0
 48 49  4  0
 49 50  4  0
 50 51  4  0
 51 52  4  0
 52 53  4  0
 53 54  4  0
 54 55  4  0
 55 56  4  0
 56 57  4  0
 35 58  4  0
 58 59  4  0
 59 60  4  0
 60 61  4  0
 61 62  4  0
 62 63  4  0
 63 64  4  0
 64 65  4  0
 65 66  4  0
 14  1  4  0
 21 16  4  0
 66 23  4  0
 13  4  4  0
 65 26  4  0
 11  6  4  0
 63 28  4  0
 22  8  4  0
 61 30  4  0
 59 32  4  0
 57 36  4  0
 42 37  4  0
 57 44  4  0
 55 46  4  0
 53 48  4  0
  1 67  1  0
  2 68  1  0
  3 69  1  0
  5 70  1  0
 12 71  1  0
 14 72  1  0
 15 73  1  0
 17 74  1  0
 18 75  1  0
 19 76  1  0
 20 77  1  0
 24 78  1  0
 25 79  1  0
 27 80  1  0
 29 81  1  0
 31 82  1  0
 33 83  1  0
 34 84  1  0
 38 85  1  0
 39 86  1  0
 40 87  1  0
 41 88  1  0
 43 89  1  0
 47 90  1  0
 49 91  1  0
 50 92  1  0
 51 93  1  0
 52 94  1  0
 54 95  1  0
 58 96  1  0
 60 97  1  0
 62 98  1  0
 64 99  1  0
 66100  1  0
M  END
