
     RDKit          3D

100114  0  0  0  0  0  0  0  0999 V2000
   13.5578    2.8673    2.3688 C   0  0  0  0  0  0  0  0  0  0  0  0
   13.3731    1.5435    1.9676 C   0  0  0  0  0  0  0  0  0  0  0  0
   12.1933    1.1509    1.3148 C   0  0  0  0  0  0  0  0  0  0  0  0
   11.9855   -0.1739    0.9022 C   0  0  0  0  0  0  0  0  0  0  0  0
   10.8195   -0.5648    0.2567 C   0  0  0  0  0  0  0  0  0  0  0  0
   10.6671   -1.8477   -0.1194 N   0  0  0  0  0  0  0  0  0  0  0  0
    9.5211   -2.1812   -0.7410 C   0  0  0  0  0  0  0  0  0  0  0  0
    9.3181   -3.4919   -1.1484 C   0  0  0  0  0  0  0  0  0  0  0  0
    8.1421   -3.8966   -1.7992 C   0  0  0  0  0  0  0  0  0  0  0  0
    7.9749   -5.2313   -2.1977 C   0  0  0  0  0  0  0  0  0  0  0  0
    6.8132   -5.6428   -2.8442 C   0  0  0  0  0  0  0  0  0  0  0  0
    5.8014   -4.7227   -3.0986 C   0  0  0  0  0  0  0  0  0  0  0  0
    5.9336   -3.3772   -2.7119 C   0  0  0  0  0  0  0  0  0  0  0  0
    4.8249   -2.4551   -3.0017 C   0  0  0  0  0  0  0  0  0  0  0  0
    4.7052   -1.8542   -4.2601 C   0  0  0  0  0  0  0  0  0  0  0  0
    3.6619   -0.9644   -4.5270 C   0  0  0  0  0  0  0  0  0  0  0  0
    2.7130   -0.6553   -3.5407 C   0  0  0  0  0  0  0  0  0  0  0  0
    1.6641    0.2443   -3.7901 C   0  0  0  0  0  0  0  0  0  0  0  0
    0.7157    0.5562   -2.8012 C   0  0  0  0  0  0  0  0  0  0  0  0
   -0.3327    1.4580   -3.0494 C   0  0  0  0  0  0  0  0  0  0  0  0
   -1.2805    1.7713   -2.0607 C   0  0  0  0  0  0  0  0  0  0  0  0
   -2.3303    2.6714   -2.3098 C   0  0  0  0  0  0  0  0  0  0  0  0
   -3.2786    2.9816   -1.3210 C   0  0  0  0  0  0  0  0  0  0  0  0
   -4.3318    3.8748   -1.5697 C   0  0  0  0  0  0  0  0  0  0  0  0
   -5.2711    4.1665   -0.5771 C   0  0  0  0  0  0  0  0  0  0  0  0
   -5.1799    3.5736    0.6876 C   0  0  0  0  0  0  0  0  0  0  0  0
   -6.1732    3.8699    1.7324 C   0  0  0  0  0  0  0  0  0  0  0  0
   -7.2193    2.9615    2.0695 C   0  0  0  0  0  0  0  0  0  0  0  0
   -7.4182    1.7180    1.4253 C   0  0  0  0  0  0  0  0  0  0  0  0
   -8.4383    0.8421    1.7758 C   0  0  0  0  0  0  0  0  0  0  0  0
   -8.5653   -0.3293    1.1253 N   0  0  0  0  0  0  0  0  0  0  0  0
   -9.5662   -1.1457    1.5012 C   0  0  0  0  0  0  0  0  0  0  0  0
   -9.7349   -2.3651    0.8578 C   0  0  0  0  0  0  0  0  0  0  0  0
  -10.7623   -3.2523    1.2126 C   0  0  0  0  0  0  0  0  0  0  0  0
  -10.9307   -4.4849    0.5604 C   0  0  0  0  0  0  0  0  0  0  0  0
  -11.9601   -5.3514    0.9305 C   0  0  0  0  0  0  0  0  0  0  0  0
  -12.8322   -4.9967    1.9555 C   0  0  0  0  0  0  0  0  0  0  0  0
  -12.6765   -3.7750    2.6121 C   0  0  0  0  0  0  0  0  0  0  0  0
  -11.6450   -2.8933    2.2500 C   0  0  0  0  0  0  0  0  0  0  0  0
  -11.4687   -1.6600    2.8955 C   0  0  0  0  0  0  0  0  0  0  0  0
  -10.4494   -0.7863    2.5392 C   0  0  0  0  0  0  0  0  0  0  0  0
  -10.3218    0.3851    3.1888 N   0  0  0  0  0  0  0  0  0  0  0  0
   -9.3204    1.2002    2.8106 C   0  0  0  0  0  0  0  0  0  0  0  0
   -9.1506    2.4196    3.4501 C   0  0  0  0  0  0  0  0  0  0  0  0
   -8.1210    3.3073    3.1008 C   0  0  0  0  0  0  0  0  0  0  0  0
   -7.9849    4.5327    3.7699 C   0  0  0  0  0  0  0  0  0  0  0  0
   -6.9678    5.4206    3.4331 C   0  0  0  0  0  0  0  0  0  0  0  0
   -6.0698    5.0909    2.4234 C   0  0  0  0  0  0  0  0  0  0  0  0
   -4.1200    2.6877    0.9392 C   0  0  0  0  0  0  0  0  0  0  0  0
   -3.1716    2.3798   -0.0507 C   0  0  0  0  0  0  0  0  0  0  0  0
   -2.1220    1.4809    0.1980 C   0  0  0  0  0  0  0  0  0  0  0  0
   -1.1763    1.1682   -0.7922 C   0  0  0  0  0  0  0  0  0  0  0  0
   -0.1292    0.2656   -0.5441 C   0  0  0  0  0  0  0  0  0  0  0  0
    0.8184   -0.0474   -1.5329 C   0  0  0  0  0  0  0  0  0  0  0  0
    1.8671   -0.9482   -1.2832 C   0  0  0  0  0  0  0  0  0  0  0  0
    2.8164   -1.2586   -2.2707 C   0  0  0  0  0  0  0  0  0  0  0  0
    3.8697   -2.1537   -2.0179 C   0  0  0  0  0  0  0  0  0  0  0  0
    7.1234   -2.9513   -2.0531 C   0  0  0  0  0  0  0  0  0  0  0  0
    7.3535   -1.6206   -1.6333 C   0  0  0  0  0  0  0  0  0  0  0  0
    8.5192   -1.2257   -0.9890 C   0  0  0  0  0  0  0  0  0  0  0  0
    8.6711    0.0575   -0.6134 N   0  0  0  0  0  0  0  0  0  0  0  0
    9.8157    0.3934    0.0080 C   0  0  0  0  0  0  0  0  0  0  0  0
   10.0150    1.7067    0.4134 C   0  0  0  0  0  0  0  0  0  0  0  0
   11.1903    2.1084    1.0658 C   0  0  0  0  0  0  0  0  0  0  0  0
   11.3896    3.4372    1.4751 C   0  0  0  0  0  0  0  0  0  0  0  0
   12.5671    3.8133    2.1228 C   0  0  0  0  0  0  0  0  0  0  0  0
   14.4755    3.1589    2.8734 H   0  0  0  0  0  0  0  0  0  0  0  0
   14.1594    0.8187    2.1691 H   0  0  0  0  0  0  0  0  0  0  0  0
   12.7474   -0.9286    1.0845 H   0  0  0  0  0  0  0  0  0  0  0  0
   10.1074   -4.2138   -0.9478 H   0  0  0  0  0  0  0  0  0  0  0  0
    8.7547   -5.9664   -2.0064 H   0  0  0  0  0  0  0  0  0  0  0  0
    6.6955   -6.6798   -3.1478 H   0  0  0  0  0  0  0  0  0  0  0  0
    4.8953   -5.0574   -3.6014 H   0  0  0  0  0  0  0  0  0  0  0  0
    5.4330   -2.0700   -5.0398 H   0  0  0  0  0  0  0  0  0  0  0  0
    3.6001   -0.5099   -5.5134 H   0  0  0  0  0  0  0  0  0  0  0  0
    1.5860    0.7121   -4.7699 H   0  0  0  0  0  0  0  0  0  0  0  0
   -0.4117    1.9246   -4.0299 H   0  0  0  0  0  0  0  0  0  0  0  0
   -2.4130    3.1356   -3.2909 H   0  0  0  0  0  0  0  0  0  0  0  0
   -4.4341    4.3488   -2.5434 H   0  0  0  0  0  0  0  0  0  0  0  0
   -6.0831    4.8558   -0.8000 H   0  0  0  0  0  0  0  0  0  0  0  0
   -6.7597    1.4089    0.6153 H   0  0  0  0  0  0  0  0  0  0  0  0
   -9.0421   -2.6226    0.0594 H   0  0  0  0  0  0  0  0  0  0  0  0
  -10.2585   -4.7788   -0.2431 H   0  0  0  0  0  0  0  0  0  0  0  0
  -12.0802   -6.3027    0.4182 H   0  0  0  0  0  0  0  0  0  0  0  0
  -13.6346   -5.6704    2.2452 H   0  0  0  0  0  0  0  0  0  0  0  0
  -13.3686   -3.5157    3.4108 H   0  0  0  0  0  0  0  0  0  0  0  0
  -12.1394   -1.3638    3.6992 H   0  0  0  0  0  0  0  0  0  0  0  0
   -9.8476    2.6770    4.2453 H   0  0  0  0  0  0  0  0  0  0  0  0
   -8.6762    4.8070    4.5648 H   0  0  0  0  0  0  0  0  0  0  0  0
   -6.8725    6.3669    3.9594 H   0  0  0  0  0  0  0  0  0  0  0  0
   -5.2729    5.7903    2.1751 H   0  0  0  0  0  0  0  0  0  0  0  0
   -4.0412    2.2263    1.9227 H   0  0  0  0  0  0  0  0  0  0  0  0
   -2.0428    1.0141    1.1783 H   0  0  0  0  0  0  0  0  0  0  0  0
   -0.0501   -0.2015    0.4361 H   0  0  0  0  0  0  0  0  0  0  0  0
    1.9479   -1.4135   -0.3023 H   0  0  0  0  0  0  0  0  0  0  0  0
    3.9578   -2.6197   -1.0375 H   0  0  0  0  0  0  0  0  0  0  0  0
    6.6026   -0.8524   -1.8108 H   0  0  0  0  0  0  0  0  0  0  0  0
    9.2277    2.4300    0.2114 H   0  0  0  0  0  0  0  0  0  0  0  0
   10.6266    4.1909    1.2915 H   0  0  0  0  0  0  0  0  0  0  0  0
   12.7098    4.8448    2.4348 H   0  0  0  0  0  0  0  0  0  0  0  0
  1  2  4  0
  2  3  4  0
  3  4  4  0
  4  5  4  0
  5  6  4  0
  6  7  4  0
  7  8  4  0
  8  9  4  0
  9 10  4  0
 10 11  4  0
 11 12  4  0
 12 13  4  0
 13 14  1  0
 14 15  4  0
 15 16  4  0
 16 17  4  0
 17 18  4  0
 18 19  4  0
 19 20  4  0
 20 21  4  0
 21 22  4  0
 22 23  4  0
 23 24  4  0
 24 25  4  0
 25 26  4  0
 26 27  1  0
 27 28  4  0
 28 29  4  0
 29 30  4  0
 30 31  4  0
 31 32  4  0
 32 33  4  0
 33 34  4  0
 34 35  4  0
 35 36  4  0
 36 37  4  0
 37 38  4  0
 38 39  4  0
 39 40  4  0
 40 41  4  0
 41 42  4  0
 42 43  4  0
 43 44  4  0
 44 45  4  0
 45 46  4  0
 46 47  4  0
 47 48  4  0
 26 49  4  0
 49 50  4  0
 50 51  4  0
 51 52  4  0
 52 53  4  0
 53 54  4  0
 54 55  4  0
 55 56  4  0
 56 57  4  0
 13 58  4  0
 58 59  4  0
 59 60  4  0
 60 61  4  0
 61 62  4  0
 62 63  4  0
 63 64  4  0
 64 65  4  0
 65 66  4  0
 66  1  4  0
 64  3  4  0
 62  5  4  0
 60  7  4  0
 58  9  4  0
 57 14  4  0
 56 17  4  0
 54 19  4  0
 52 21  4  0
 50 23  4  0
 48 27  4  0
 45 28  4  0
 43 30  4  0
 41 32  4  0
 39 34  4  0
  1 67  1  0
  2 68  1  0
  4 69  1  0
  8 70  1  0
 10 71  1  0
 11 72  1  0
 12 73  1  0
 15 74  1  0
 16 75  1  0
 18 76  1  0
 20 77  1  0
 22 78  1  0
 24 79  1  0
 25 80  1  0
 29 81  1  0
 33 82  1  0
 35 83  1  0
 36 84  1  0
 37 85  1  0
 38 86  1  0
 40 87  1  0
 44 88  1  0
 46 89  1  0
 47 90  1  0
 48 91  1  0
 49 92  1  0
 51 93  1  0
 53 94  1  0
 55 95  1  0
 57 96  1  0
 59 97  1  0
 63 98  1  0
 65 99  1  0
 66100  1  0
M  END
