
     RDKit          3D

100114  0  0  0  0  0  0  0  0999 V2000
  -13.5347   -3.7520   -1.4642 C   0  0  0  0  0  0  0  0  0  0  0  0
  -12.5572   -3.7939   -2.4540 C   0  0  0  0  0  0  0  0  0  0  0  0
  -11.4131   -3.0033   -2.3378 C   0  0  0  0  0  0  0  0  0  0  0  0
  -11.2344   -2.1608   -1.2282 C   0  0  0  0  0  0  0  0  0  0  0  0
  -10.0928   -1.3570   -1.0896 C   0  0  0  0  0  0  0  0  0  0  0  0
   -9.9139   -0.5231    0.0067 C   0  0  0  0  0  0  0  0  0  0  0  0
   -8.8019    0.2286    0.0940 N   0  0  0  0  0  0  0  0  0  0  0  0
   -8.6688    1.0219    1.1729 C   0  0  0  0  0  0  0  0  0  0  0  0
   -7.5366    1.8155    1.3084 C   0  0  0  0  0  0  0  0  0  0  0  0
   -7.3268    2.6692    2.4163 C   0  0  0  0  0  0  0  0  0  0  0  0
   -8.3330    2.7030    3.4075 C   0  0  0  0  0  0  0  0  0  0  0  0
   -9.4751    1.8995    3.2654 C   0  0  0  0  0  0  0  0  0  0  0  0
   -9.6572    1.0642    2.1726 C   0  0  0  0  0  0  0  0  0  0  0  0
  -10.7706    0.3133    2.0876 N   0  0  0  0  0  0  0  0  0  0  0  0
  -10.9038   -0.4807    1.0094 C   0  0  0  0  0  0  0  0  0  0  0  0
  -12.0364   -1.2739    0.8784 C   0  0  0  0  0  0  0  0  0  0  0  0
  -12.2238   -2.1185   -0.2263 C   0  0  0  0  0  0  0  0  0  0  0  0
  -13.3701   -2.9195   -0.3562 C   0  0  0  0  0  0  0  0  0  0  0  0
   -8.1874    3.5370    4.5262 C   0  0  0  0  0  0  0  0  0  0  0  0
   -7.0597    4.3381    4.6770 C   0  0  0  0  0  0  0  0  0  0  0  0
   -6.0598    4.3122    3.7104 C   0  0  0  0  0  0  0  0  0  0  0  0
   -6.1701    3.4865    2.5772 C   0  0  0  0  0  0  0  0  0  0  0  0
   -5.0713    3.4945    1.5988 C   0  0  0  0  0  0  0  0  0  0  0  0
   -4.9752    4.5081    0.6384 C   0  0  0  0  0  0  0  0  0  0  0  0
   -3.9380    4.5052   -0.2976 C   0  0  0  0  0  0  0  0  0  0  0  0
   -2.9711    3.4882   -0.2941 C   0  0  0  0  0  0  0  0  0  0  0  0
   -1.9259    3.4667   -1.2319 C   0  0  0  0  0  0  0  0  0  0  0  0
   -0.9610    2.4451   -1.2298 C   0  0  0  0  0  0  0  0  0  0  0  0
    0.0834    2.4215   -2.1691 C   0  0  0  0  0  0  0  0  0  0  0  0
    1.0487    1.4003   -2.1680 C   0  0  0  0  0  0  0  0  0  0  0  0
    2.0933    1.3780   -3.1074 C   0  0  0  0  0  0  0  0  0  0  0  0
    3.0586    0.3573   -3.1053 C   0  0  0  0  0  0  0  0  0  0  0  0
    4.1027    0.3355   -4.0424 C   0  0  0  0  0  0  0  0  0  0  0  0
    5.0534   -0.6882   -4.0298 C   0  0  0  0  0  0  0  0  0  0  0  0
    4.9852   -1.7133   -3.0790 C   0  0  0  0  0  0  0  0  0  0  0  0
    5.9789   -2.7982   -3.0721 C   0  0  0  0  0  0  0  0  0  0  0  0
    5.7433   -3.9174   -3.8913 C   0  0  0  0  0  0  0  0  0  0  0  0
    6.6413   -4.9788   -3.9299 C   0  0  0  0  0  0  0  0  0  0  0  0
    7.7919   -4.9384   -3.1487 C   0  0  0  0  0  0  0  0  0  0  0  0
    8.0603   -3.8385   -2.3203 C   0  0  0  0  0  0  0  0  0  0  0  0
    9.2250   -3.8096   -1.5377 C   0  0  0  0  0  0  0  0  0  0  0  0
    9.5282   -2.7411   -0.7067 C   0  0  0  0  0  0  0  0  0  0  0  0
   10.6594   -2.7665    0.0221 N   0  0  0  0  0  0  0  0  0  0  0  0
   10.9121   -1.7083    0.8137 C   0  0  0  0  0  0  0  0  0  0  0  0
   12.0675   -1.6896    1.5843 C   0  0  0  0  0  0  0  0  0  0  0  0
   12.3772   -0.6108    2.4264 C   0  0  0  0  0  0  0  0  0  0  0  0
   13.5462   -0.5944    3.2050 C   0  0  0  0  0  0  0  0  0  0  0  0
   13.8330    0.4899    4.0355 C   0  0  0  0  0  0  0  0  0  0  0  0
   12.9563    1.5691    4.0978 C   0  0  0  0  0  0  0  0  0  0  0  0
   11.7912    1.5660    3.3297 C   0  0  0  0  0  0  0  0  0  0  0  0
   11.4900    0.4816    2.4895 C   0  0  0  0  0  0  0  0  0  0  0  0
   10.3249    0.4562    1.7081 C   0  0  0  0  0  0  0  0  0  0  0  0
   10.0244   -0.6150    0.8765 C   0  0  0  0  0  0  0  0  0  0  0  0
    8.8944   -0.5921    0.1465 N   0  0  0  0  0  0  0  0  0  0  0  0
    8.6416   -1.6506   -0.6454 C   0  0  0  0  0  0  0  0  0  0  0  0
    7.4865   -1.6738   -1.4185 C   0  0  0  0  0  0  0  0  0  0  0  0
    7.1570   -2.7527   -2.2713 C   0  0  0  0  0  0  0  0  0  0  0  0
    3.9410   -1.6920   -2.1410 C   0  0  0  0  0  0  0  0  0  0  0  0
    2.9767   -0.6684   -2.1412 C   0  0  0  0  0  0  0  0  0  0  0  0
    1.9319   -0.6450   -1.2025 C   0  0  0  0  0  0  0  0  0  0  0  0
    0.9672    0.3768   -1.2040 C   0  0  0  0  0  0  0  0  0  0  0  0
   -0.0777    0.4000   -0.2649 C   0  0  0  0  0  0  0  0  0  0  0  0
   -1.0425    1.4214   -0.2660 C   0  0  0  0  0  0  0  0  0  0  0  0
   -2.0873    1.4431    0.6728 C   0  0  0  0  0  0  0  0  0  0  0  0
   -3.0522    2.4634    0.6707 C   0  0  0  0  0  0  0  0  0  0  0  0
   -4.0991    2.4817    1.6078 C   0  0  0  0  0  0  0  0  0  0  0  0
  -14.4264   -4.3676   -1.5534 H   0  0  0  0  0  0  0  0  0  0  0  0
  -12.6844   -4.4422   -3.3173 H   0  0  0  0  0  0  0  0  0  0  0  0
  -10.6599   -3.0497   -3.1217 H   0  0  0  0  0  0  0  0  0  0  0  0
   -9.3164   -1.3745   -1.8515 H   0  0  0  0  0  0  0  0  0  0  0  0
   -6.7962    1.7594    0.5121 H   0  0  0  0  0  0  0  0  0  0  0  0
  -10.2540    1.9179    4.0254 H   0  0  0  0  0  0  0  0  0  0  0  0
  -12.7883   -1.2265    1.6631 H   0  0  0  0  0  0  0  0  0  0  0  0
  -14.1452   -2.9008    0.4072 H   0  0  0  0  0  0  0  0  0  0  0  0
   -8.9581    3.5698    5.2943 H   0  0  0  0  0  0  0  0  0  0  0  0
   -6.9586    4.9801    5.5484 H   0  0  0  0  0  0  0  0  0  0  0  0
   -5.1791    4.9388    3.8428 H   0  0  0  0  0  0  0  0  0  0  0  0
   -5.7166    5.3041    0.6083 H   0  0  0  0  0  0  0  0  0  0  0  0
   -3.8951    5.3039   -1.0348 H   0  0  0  0  0  0  0  0  0  0  0  0
   -1.8637    4.2576   -1.9773 H   0  0  0  0  0  0  0  0  0  0  0  0
    0.1466    3.2123   -2.9146 H   0  0  0  0  0  0  0  0  0  0  0  0
    2.1559    2.1687   -3.8531 H   0  0  0  0  0  0  0  0  0  0  0  0
    4.1852    1.1181   -4.7934 H   0  0  0  0  0  0  0  0  0  0  0  0
    5.8526   -0.6811   -4.7684 H   0  0  0  0  0  0  0  0  0  0  0  0
    4.8457   -3.9610   -4.5063 H   0  0  0  0  0  0  0  0  0  0  0  0
    6.4439   -5.8362   -4.5680 H   0  0  0  0  0  0  0  0  0  0  0  0
    8.4827   -5.7786   -3.1923 H   0  0  0  0  0  0  0  0  0  0  0  0
    9.9254   -4.6420   -1.5699 H   0  0  0  0  0  0  0  0  0  0  0  0
   12.7390   -2.5431    1.5209 H   0  0  0  0  0  0  0  0  0  0  0  0
   14.2437   -1.4288    3.1698 H   0  0  0  0  0  0  0  0  0  0  0  0
   14.7409    0.4910    4.6333 H   0  0  0  0  0  0  0  0  0  0  0  0
   13.1785    2.4142    4.7444 H   0  0  0  0  0  0  0  0  0  0  0  0
   11.1177    2.4184    3.3918 H   0  0  0  0  0  0  0  0  0  0  0  0
    9.6262    1.2895    1.7420 H   0  0  0  0  0  0  0  0  0  0  0  0
    6.8250   -0.8120   -1.3464 H   0  0  0  0  0  0  0  0  0  0  0  0
    3.8821   -2.4883   -1.4003 H   0  0  0  0  0  0  0  0  0  0  0  0
    1.8686   -1.4359   -0.4570 H   0  0  0  0  0  0  0  0  0  0  0  0
   -0.1410   -0.3911    0.4804 H   0  0  0  0  0  0  0  0  0  0  0  0
   -2.1533    0.6504    1.4161 H   0  0  0  0  0  0  0  0  0  0  0  0
   -4.1675    1.6922    2.3550 H   0  0  0  0  0  0  0  0  0  0  0  0
  1  2  4  0
  2  3  4  0
  3  4  4  0
  4  5  4  0
  5  6  4  0
  6  7  4  0
  7  8  4  0
  8  9  4  0
  9 10  4  0
 10 11  4  0
 11 12  4  0
 12 13  4  0
 13 14  4  0
 14 15  4  0
 15 16  4  0
 16 17  4  0
 17 18  4  0
 11 19  4  0
 19 20  4  0
 20 21  4  0
 21 22  4  0
 22 23  1  0
 23 24  4  0
 24 25  4  0
 25 26  4  0
 26 27  4  0
 27 28  4  0
 28 29  4  0
 29 30  4  0
 30 31  4  0
 31 32  4  0
 32 33  4  0
 33 34  4  0
 34 35  4  0
 35 36  1  0
 36 37  4  0
 37 38  4  0
 38 39  4  0
 39 40  4  0
 40 41  4  0
 41 42  4  0
 42 43  4  0
 43 44  4  0
 44 45  4  0
 45 46  4  0
 46 47  4  0
 47 48  4  0
 48 49  4  0
 49 50  4  0
 50 51  4  0
 51 52  4  0
 52 53  4  0
 53 54  4  0
 54 55  4  0
 55 56  4  0
 56 57  4  0
 35 58  4  0
 58 59  4  0
 59 60  4  0
 60 61  4  0
 61 62  4  0
 62 63  4  0
 63 64  4  0
 64 65  4  0
 65 66  4  0
 18  1  4  0
 66 23  4  0
 17  4  4  0
 65 26  4  0
 15  6  4  0
 63 28  4  0
 13  8  4  0
 61 30  4  0
 22 10  4  0
 59 32  4  0
 57 36  4  0
 57 40  4  0
 55 42  4  0
 53 44  4  0
 51 46  4  0
  1 67  1  0
  2 68  1  0
  3 69  1  0
  5 70  1  0
  9 71  1  0
 12 72  1  0
 16 73  1  0
 18 74  1  0
 19 75  1  0
 20 76  1  0
 21 77  1  0
 24 78  1  0
 25 79  1  0
 27 80  1  0
 29 81  1  0
 31 82  1  0
 33 83  1  0
 34 84  1  0
 37 85  1  0
 38 86  1  0
 39 87  1  0
 41 88  1  0
 45 89  1  0
 47 90  1  0
 48 91  1  0
 49 92  1  0
 50 93  1  0
 52 94  1  0
 56 95  1  0
 58 96  1  0
 60 97  1  0
 62 98  1  0
 64 99  1  0
 66100  1  0
M  END
