
     RDKit          3D

102114  0  0  0  0  0  0  0  0999 V2000
   12.8709   -1.6046    2.1160 C   0  0  0  0  0  0  0  0  0  0  0  0
   11.6155   -1.7782    2.7432 C   0  0  0  0  0  0  0  0  0  0  0  0
   10.6052   -1.1658    2.0051 C   0  0  0  0  0  0  0  0  0  0  0  0
    9.2578   -1.1261    2.2844 C   0  0  0  0  0  0  0  0  0  0  0  0
    8.3739   -1.6630    3.3117 C   0  0  0  0  0  0  0  0  0  0  0  0
    8.5628   -2.9520    3.8287 C   0  0  0  0  0  0  0  0  0  0  0  0
    7.7141   -3.4561    4.8187 C   0  0  0  0  0  0  0  0  0  0  0  0
    6.6641   -2.6778    5.3009 C   0  0  0  0  0  0  0  0  0  0  0  0
    6.4570   -1.3987    4.7895 C   0  0  0  0  0  0  0  0  0  0  0  0
    7.3048   -0.8965    3.7986 C   0  0  0  0  0  0  0  0  0  0  0  0
    8.6302   -0.3911    1.3039 O   0  0  0  0  0  0  0  0  0  0  0  0
    9.5726    0.0320    0.3943 C   0  0  0  0  0  0  0  0  0  0  0  0
    9.0518    0.8465   -0.6960 C   0  0  0  0  0  0  0  0  0  0  0  0
    9.7498    1.9677   -1.1582 C   0  0  0  0  0  0  0  0  0  0  0  0
    9.2407    2.7381   -2.2040 C   0  0  0  0  0  0  0  0  0  0  0  0
    8.0240    2.3963   -2.7965 C   0  0  0  0  0  0  0  0  0  0  0  0
    7.2921    1.2836   -2.3532 C   0  0  0  0  0  0  0  0  0  0  0  0
    6.0038    0.9255   -2.9708 C   0  0  0  0  0  0  0  0  0  0  0  0
    5.8846    0.7712   -4.3588 C   0  0  0  0  0  0  0  0  0  0  0  0
    4.6616    0.4294   -4.9438 C   0  0  0  0  0  0  0  0  0  0  0  0
    3.5194    0.2321   -4.1548 C   0  0  0  0  0  0  0  0  0  0  0  0
    2.2833   -0.1122   -4.7265 C   0  0  0  0  0  0  0  0  0  0  0  0
    1.1392   -0.3093   -3.9348 C   0  0  0  0  0  0  0  0  0  0  0  0
   -0.0978   -0.6536   -4.5057 C   0  0  0  0  0  0  0  0  0  0  0  0
   -1.2420   -0.8507   -3.7141 C   0  0  0  0  0  0  0  0  0  0  0  0
   -2.4784   -1.1955   -4.2856 C   0  0  0  0  0  0  0  0  0  0  0  0
   -3.6217   -1.3928   -3.4936 C   0  0  0  0  0  0  0  0  0  0  0  0
   -4.8557   -1.7383   -4.0628 C   0  0  0  0  0  0  0  0  0  0  0  0
   -5.9839   -1.9320   -3.2603 C   0  0  0  0  0  0  0  0  0  0  0  0
   -5.9138   -1.7848   -1.8683 C   0  0  0  0  0  0  0  0  0  0  0  0
   -7.1017   -1.9905   -1.0236 C   0  0  0  0  0  0  0  0  0  0  0  0
   -7.8307   -3.1881   -1.0844 C   0  0  0  0  0  0  0  0  0  0  0  0
   -8.9586   -3.3831   -0.2864 C   0  0  0  0  0  0  0  0  0  0  0  0
   -9.3743   -2.3822    0.5918 C   0  0  0  0  0  0  0  0  0  0  0  0
   -8.6669   -1.1781    0.6855 C   0  0  0  0  0  0  0  0  0  0  0  0
   -9.0935   -0.1278    1.6018 C   0  0  0  0  0  0  0  0  0  0  0  0
   -9.5970   -0.0642    2.8812 C   0  0  0  0  0  0  0  0  0  0  0  0
   -9.8137   -1.1158    3.7690 C   0  0  0  0  0  0  0  0  0  0  0  0
  -10.3137   -0.6373    5.0018 C   0  0  0  0  0  0  0  0  0  0  0  0
  -10.5525    0.7505    5.2935 C   0  0  0  0  0  0  0  0  0  0  0  0
  -10.3165    1.8062    4.3830 C   0  0  0  0  0  0  0  0  0  0  0  0
   -9.8349    1.3163    3.1708 C   0  0  0  0  0  0  0  0  0  0  0  0
   -9.4679    2.0330    2.0541 C   0  0  0  0  0  0  0  0  0  0  0  0
   -9.4661    3.4339    1.6499 C   0  0  0  0  0  0  0  0  0  0  0  0
   -8.4146    3.9497    0.8780 C   0  0  0  0  0  0  0  0  0  0  0  0
   -8.4020    5.2925    0.4912 C   0  0  0  0  0  0  0  0  0  0  0  0
   -9.4450    6.1357    0.8673 C   0  0  0  0  0  0  0  0  0  0  0  0
  -10.5022    5.6360    1.6244 C   0  0  0  0  0  0  0  0  0  0  0  0
  -10.5135    4.2927    2.0110 C   0  0  0  0  0  0  0  0  0  0  0  0
   -8.9968    1.1524    1.1060 O   0  0  0  0  0  0  0  0  0  0  0  0
   -7.5392   -0.9942   -0.1320 C   0  0  0  0  0  0  0  0  0  0  0  0
   -4.6747   -1.4372   -1.3035 C   0  0  0  0  0  0  0  0  0  0  0  0
   -3.5286   -1.2404   -2.0959 C   0  0  0  0  0  0  0  0  0  0  0  0
   -2.2916   -0.8962   -1.5253 C   0  0  0  0  0  0  0  0  0  0  0  0
   -1.1472   -0.6994   -2.3171 C   0  0  0  0  0  0  0  0  0  0  0  0
    0.0901   -0.3552   -1.7465 C   0  0  0  0  0  0  0  0  0  0  0  0
    1.2344   -0.1584   -2.5380 C   0  0  0  0  0  0  0  0  0  0  0  0
    2.4715    0.1852   -1.9665 C   0  0  0  0  0  0  0  0  0  0  0  0
    3.6159    0.3820   -2.7574 C   0  0  0  0  0  0  0  0  0  0  0  0
    4.8549    0.7256   -2.1856 C   0  0  0  0  0  0  0  0  0  0  0  0
    7.8250    0.5213   -1.2979 C   0  0  0  0  0  0  0  0  0  0  0  0
   10.8042   -0.4372    0.7902 C   0  0  0  0  0  0  0  0  0  0  0  0
   12.0307   -0.2651    0.1529 C   0  0  0  0  0  0  0  0  0  0  0  0
   13.0673   -0.8902    0.8833 C   0  0  0  0  0  0  0  0  0  0  0  0
   13.7491   -2.0402    2.5949 H   0  0  0  0  0  0  0  0  0  0  0  0
   11.4903   -2.3117    3.6742 H   0  0  0  0  0  0  0  0  0  0  0  0
    9.3615   -3.5863    3.4526 H   0  0  0  0  0  0  0  0  0  0  0  0
    7.8707   -4.4587    5.2083 H   0  0  0  0  0  0  0  0  0  0  0  0
    6.0044   -3.0698    6.0708 H   0  0  0  0  0  0  0  0  0  0  0  0
    5.6367   -0.7899    5.1605 H   0  0  0  0  0  0  0  0  0  0  0  0
    7.1302    0.1044    3.4084 H   0  0  0  0  0  0  0  0  0  0  0  0
   10.6873    2.2655   -0.6949 H   0  0  0  0  0  0  0  0  0  0  0  0
    9.7863    3.6119   -2.5511 H   0  0  0  0  0  0  0  0  0  0  0  0
    7.6376    3.0196   -3.6006 H   0  0  0  0  0  0  0  0  0  0  0  0
    6.7540    0.9029   -5.0000 H   0  0  0  0  0  0  0  0  0  0  0  0
    4.6115    0.3147   -6.0243 H   0  0  0  0  0  0  0  0  0  0  0  0
    2.2110   -0.2287   -5.8063 H   0  0  0  0  0  0  0  0  0  0  0  0
   -0.1709   -0.7704   -5.5856 H   0  0  0  0  0  0  0  0  0  0  0  0
   -2.5527   -1.3123   -5.3652 H   0  0  0  0  0  0  0  0  0  0  0  0
   -4.9522   -1.8570   -5.1397 H   0  0  0  0  0  0  0  0  0  0  0  0
   -6.9293   -2.1871   -3.7352 H   0  0  0  0  0  0  0  0  0  0  0  0
   -7.5161   -3.9852   -1.7555 H   0  0  0  0  0  0  0  0  0  0  0  0
   -9.5153   -4.3143   -0.3521 H   0  0  0  0  0  0  0  0  0  0  0  0
  -10.2689   -2.5459    1.1876 H   0  0  0  0  0  0  0  0  0  0  0  0
   -9.6187   -2.1611    3.5779 H   0  0  0  0  0  0  0  0  0  0  0  0
  -10.5236   -1.3637    5.7883 H   0  0  0  0  0  0  0  0  0  0  0  0
  -10.9309    1.0024    6.2854 H   0  0  0  0  0  0  0  0  0  0  0  0
  -10.4798    2.8450    4.6305 H   0  0  0  0  0  0  0  0  0  0  0  0
   -7.5927    3.3041    0.5752 H   0  0  0  0  0  0  0  0  0  0  0  0
   -7.5783    5.6765   -0.1049 H   0  0  0  0  0  0  0  0  0  0  0  0
   -9.4372    7.1799    0.5652 H   0  0  0  0  0  0  0  0  0  0  0  0
  -11.3229    6.2894    1.9092 H   0  0  0  0  0  0  0  0  0  0  0  0
  -11.3614    3.9207    2.5806 H   0  0  0  0  0  0  0  0  0  0  0  0
   -6.9952   -0.0518   -0.0775 H   0  0  0  0  0  0  0  0  0  0  0  0
   -4.5999   -1.3277   -0.2224 H   0  0  0  0  0  0  0  0  0  0  0  0
   -2.2191   -0.7802   -0.4452 H   0  0  0  0  0  0  0  0  0  0  0  0
    0.1645   -0.2377   -0.6668 H   0  0  0  0  0  0  0  0  0  0  0  0
    2.5455    0.3011   -0.8865 H   0  0  0  0  0  0  0  0  0  0  0  0
    4.9260    0.8488   -1.1054 H   0  0  0  0  0  0  0  0  0  0  0  0
    7.2815   -0.3551   -0.9451 H   0  0  0  0  0  0  0  0  0  0  0  0
   12.1972    0.2604   -0.7762 H   0  0  0  0  0  0  0  0  0  0  0  0
   14.0831   -0.8280    0.4901 H   0  0  0  0  0  0  0  0  0  0  0  0
  1  2  4  0
  2  3  4  0
  3  4  4  0
  4  5  1  0
  5  6  4  0
  6  7  4  0
  7  8  4  0
  8  9  4  0
  9 10  4  0
  4 11  4  0
 11 12  4  0
 12 13  1  0
 13 14  4  0
 14 15  4  0
 15 16  4  0
 16 17  4  0
 17 18  1  0
 18 19  4  0
 19 20  4  0
 20 21  4  0
 21 22  4  0
 22 23  4  0
 23 24  4  0
 24 25  4  0
 25 26  4  0
 26 27  4  0
 27 28  4  0
 28 29  4  0
 29 30  4  0
 30 31  1  0
 31 32  4  0
 32 33  4  0
 33 34  4  0
 34 35  4  0
 35 36  1  0
 36 37  4  0
 37 38  4  0
 38 39  4  0
 39 40  4  0
 40 41  4  0
 41 42  4  0
 42 43  4  0
 43 44  1  0
 44 45  4  0
 45 46  4  0
 46 47  4  0
 47 48  4  0
 48 49  4  0
 43 50  4  0
 35 51  4  0
 30 52  4  0
 52 53  4  0
 53 54  4  0
 54 55  4  0
 55 56  4  0
 56 57  4  0
 57 58  4  0
 58 59  4  0
 59 60  4  0
 17 61  4  0
 12 62  4  0
 62 63  4  0
 63 64  4  0
 64  1  4  0
 62  3  4  0
 10  5  4  0
 61 13  4  0
 60 18  4  0
 59 21  4  0
 57 23  4  0
 55 25  4  0
 53 27  4  0
 51 31  4  0
 50 36  4  0
 42 37  4  0
 49 44  4  0
  1 65  1  0
  2 66  1  0
  6 67  1  0
  7 68  1  0
  8 69  1  0
  9 70  1  0
 10 71  1  0
 14 72  1  0
 15 73  1  0
 16 74  1  0
 19 75  1  0
 20 76  1  0
 22 77  1  0
 24 78  1  0
 26 79  1  0
 28 80  1  0
 29 81  1  0
 32 82  1  0
 33 83  1  0
 34 84  1  0
 38 85  1  0
 39 86  1  0
 40 87  1  0
 41 88  1  0
 45 89  1  0
 46 90  1  0
 47 91  1  0
 48 92  1  0
 49 93  1  0
 51 94  1  0
 52 95  1  0
 54 96  1  0
 56 97  1  0
 58 98  1  0
 60 99  1  0
 61100  1  0
 63101  1  0
 64102  1  0
M  END
