
     RDKit          3D

 96110  0  0  0  0  0  0  0  0999 V2000
    7.9529   -5.4948    3.0926 C   0  0  0  0  0  0  0  0  0  0  0  0
    6.7912   -5.4593    2.3328 C   0  0  0  0  0  0  0  0  0  0  0  0
    6.4569   -4.2927    1.6442 C   0  0  0  0  0  0  0  0  0  0  0  0
    7.2633   -3.1622    1.7035 C   0  0  0  0  0  0  0  0  0  0  0  0
    6.9109   -2.0527    1.0314 N   0  0  0  0  0  0  0  0  0  0  0  0
    7.7087   -0.9605    1.1015 C   0  0  0  0  0  0  0  0  0  0  0  0
    8.8847   -1.0188    1.8734 C   0  0  0  0  0  0  0  0  0  0  0  0
    9.2444   -2.1230    2.5512 N   0  0  0  0  0  0  0  0  0  0  0  0
    8.4408   -3.1975    2.4721 C   0  0  0  0  0  0  0  0  0  0  0  0
    8.7679   -4.3634    3.1554 C   0  0  0  0  0  0  0  0  0  0  0  0
    9.7071    0.0867    1.9466 C   0  0  0  0  0  0  0  0  0  0  0  0
    9.4186    1.2633    1.2862 C   0  0  0  0  0  0  0  0  0  0  0  0
   10.2769    2.2900    1.4167 N   0  0  0  0  0  0  0  0  0  0  0  0
    9.9865    3.4358    0.7770 C   0  0  0  0  0  0  0  0  0  0  0  0
   10.8422    4.5266    0.8816 C   0  0  0  0  0  0  0  0  0  0  0  0
   10.5675    5.7301    0.2302 C   0  0  0  0  0  0  0  0  0  0  0  0
    9.4167    5.8439   -0.5385 C   0  0  0  0  0  0  0  0  0  0  0  0
    8.5536    4.7528   -0.6484 C   0  0  0  0  0  0  0  0  0  0  0  0
    8.8218    3.5512   -0.0031 C   0  0  0  0  0  0  0  0  0  0  0  0
    7.9716    2.5177   -0.1308 N   0  0  0  0  0  0  0  0  0  0  0  0
    8.2494    1.3555    0.5071 C   0  0  0  0  0  0  0  0  0  0  0  0
    7.3962    0.2345    0.4183 C   0  0  0  0  0  0  0  0  0  0  0  0
    6.1587    0.3123   -0.3993 C   0  0  0  0  0  0  0  0  0  0  0  0
    6.2184    0.5247   -1.7840 C   0  0  0  0  0  0  0  0  0  0  0  0
    5.0530    0.5966   -2.5526 C   0  0  0  0  0  0  0  0  0  0  0  0
    3.7913    0.4535   -1.9576 C   0  0  0  0  0  0  0  0  0  0  0  0
    2.6103    0.5192   -2.7155 C   0  0  0  0  0  0  0  0  0  0  0  0
    1.3472    0.3743   -2.1173 C   0  0  0  0  0  0  0  0  0  0  0  0
    0.1659    0.4381   -2.8749 C   0  0  0  0  0  0  0  0  0  0  0  0
   -1.0972    0.2912   -2.2780 C   0  0  0  0  0  0  0  0  0  0  0  0
   -2.2769    0.3507   -3.0383 C   0  0  0  0  0  0  0  0  0  0  0  0
   -3.5401    0.2038   -2.4420 C   0  0  0  0  0  0  0  0  0  0  0  0
   -4.7180    0.2610   -3.2008 C   0  0  0  0  0  0  0  0  0  0  0  0
   -5.9678    0.1131   -2.5930 C   0  0  0  0  0  0  0  0  0  0  0  0
   -6.0755   -0.0943   -1.2110 C   0  0  0  0  0  0  0  0  0  0  0  0
   -7.4009   -0.2475   -0.5646 C   0  0  0  0  0  0  0  0  0  0  0  0
   -8.1806   -1.3917   -0.8320 C   0  0  0  0  0  0  0  0  0  0  0  0
   -7.7501   -2.3682   -1.6652 N   0  0  0  0  0  0  0  0  0  0  0  0
   -8.5365   -3.4380   -1.8745 C   0  0  0  0  0  0  0  0  0  0  0  0
   -8.1114   -4.4530   -2.7233 C   0  0  0  0  0  0  0  0  0  0  0  0
   -8.9028   -5.5769   -2.9634 C   0  0  0  0  0  0  0  0  0  0  0  0
  -10.1407   -5.6858   -2.3436 C   0  0  0  0  0  0  0  0  0  0  0  0
  -10.5735   -4.6702   -1.4895 C   0  0  0  0  0  0  0  0  0  0  0  0
   -9.7898   -3.5479   -1.2450 C   0  0  0  0  0  0  0  0  0  0  0  0
  -10.2320   -2.5861   -0.4165 N   0  0  0  0  0  0  0  0  0  0  0  0
   -9.4369   -1.5216   -0.2100 C   0  0  0  0  0  0  0  0  0  0  0  0
   -9.8796   -0.5318    0.6442 C   0  0  0  0  0  0  0  0  0  0  0  0
   -9.1299    0.5946    0.9170 C   0  0  0  0  0  0  0  0  0  0  0  0
   -9.6398    1.5093    1.7603 N   0  0  0  0  0  0  0  0  0  0  0  0
   -8.9050    2.6057    2.0154 C   0  0  0  0  0  0  0  0  0  0  0  0
   -9.3897    3.5821    2.8784 C   0  0  0  0  0  0  0  0  0  0  0  0
   -8.6513    4.7320    3.1622 C   0  0  0  0  0  0  0  0  0  0  0  0
   -7.4066    4.9077    2.5720 C   0  0  0  0  0  0  0  0  0  0  0  0
   -6.9133    3.9317    1.7051 C   0  0  0  0  0  0  0  0  0  0  0  0
   -7.6434    2.7841    1.4189 C   0  0  0  0  0  0  0  0  0  0  0  0
   -7.1400    1.8623    0.5802 N   0  0  0  0  0  0  0  0  0  0  0  0
   -7.8690    0.7533    0.3116 C   0  0  0  0  0  0  0  0  0  0  0  0
   -4.8921   -0.1511   -0.4543 C   0  0  0  0  0  0  0  0  0  0  0  0
   -3.6268   -0.0059   -1.0512 C   0  0  0  0  0  0  0  0  0  0  0  0
   -2.4462   -0.0651   -0.2918 C   0  0  0  0  0  0  0  0  0  0  0  0
   -1.1822    0.0790   -0.8885 C   0  0  0  0  0  0  0  0  0  0  0  0
   -0.0008    0.0154   -0.1304 C   0  0  0  0  0  0  0  0  0  0  0  0
    1.2631    0.1588   -0.7279 C   0  0  0  0  0  0  0  0  0  0  0  0
    2.4448    0.0917    0.0294 C   0  0  0  0  0  0  0  0  0  0  0  0
    3.7080    0.2380   -0.5678 C   0  0  0  0  0  0  0  0  0  0  0  0
    4.8903    0.1728    0.1915 C   0  0  0  0  0  0  0  0  0  0  0  0
    8.2281   -6.3957    3.6352 H   0  0  0  0  0  0  0  0  0  0  0  0
    6.1450   -6.3315    2.2728 H   0  0  0  0  0  0  0  0  0  0  0  0
    5.5485   -4.2599    1.0469 H   0  0  0  0  0  0  0  0  0  0  0  0
    9.6783   -4.3879    3.7493 H   0  0  0  0  0  0  0  0  0  0  0  0
   10.6132    0.0288    2.5460 H   0  0  0  0  0  0  0  0  0  0  0  0
   11.7419    4.4335    1.4849 H   0  0  0  0  0  0  0  0  0  0  0  0
   11.2502    6.5705    0.3259 H   0  0  0  0  0  0  0  0  0  0  0  0
    9.1872    6.7746   -1.0514 H   0  0  0  0  0  0  0  0  0  0  0  0
    7.6505    4.8375   -1.2484 H   0  0  0  0  0  0  0  0  0  0  0  0
    7.1807    0.6435   -2.2778 H   0  0  0  0  0  0  0  0  0  0  0  0
    5.1429    0.7672   -3.6227 H   0  0  0  0  0  0  0  0  0  0  0  0
    2.6769    0.6846   -3.7891 H   0  0  0  0  0  0  0  0  0  0  0  0
    0.2293    0.6041   -3.9489 H   0  0  0  0  0  0  0  0  0  0  0  0
   -2.2118    0.5134   -4.1125 H   0  0  0  0  0  0  0  0  0  0  0  0
   -4.6747    0.4206   -4.2754 H   0  0  0  0  0  0  0  0  0  0  0  0
   -6.8623    0.1569   -3.2106 H   0  0  0  0  0  0  0  0  0  0  0  0
   -7.1404   -4.3630   -3.2050 H   0  0  0  0  0  0  0  0  0  0  0  0
   -8.5498   -6.3595   -3.6303 H   0  0  0  0  0  0  0  0  0  0  0  0
  -10.7693   -6.5551   -2.5198 H   0  0  0  0  0  0  0  0  0  0  0  0
  -11.5419   -4.7530   -1.0020 H   0  0  0  0  0  0  0  0  0  0  0  0
  -10.8522   -0.6434    1.1185 H   0  0  0  0  0  0  0  0  0  0  0  0
  -10.3652    3.4411    3.3374 H   0  0  0  0  0  0  0  0  0  0  0  0
   -9.0500    5.4832    3.8395 H   0  0  0  0  0  0  0  0  0  0  0  0
   -6.8189    5.7981    2.7806 H   0  0  0  0  0  0  0  0  0  0  0  0
   -5.9397    4.0656    1.2392 H   0  0  0  0  0  0  0  0  0  0  0  0
   -4.9604   -0.3066    0.6211 H   0  0  0  0  0  0  0  0  0  0  0  0
   -2.5131   -0.2266    0.7826 H   0  0  0  0  0  0  0  0  0  0  0  0
   -0.0657   -0.1499    0.9435 H   0  0  0  0  0  0  0  0  0  0  0  0
    2.3838   -0.0791    1.1028 H   0  0  0  0  0  0  0  0  0  0  0  0
    4.8245    0.0025    1.2651 H   0  0  0  0  0  0  0  0  0  0  0  0
  1  2  4  0
  2  3  4  0
  3  4  4  0
  4  5  4  0
  5  6  4  0
  6  7  4  0
  7  8  4  0
  8  9  4  0
  9 10  4  0
  7 11  4  0
 11 12  4  0
 12 13  4  0
 13 14  4  0
 14 15  4  0
 15 16  4  0
 16 17  4  0
 17 18  4  0
 18 19  4  0
 19 20  4  0
 20 21  4  0
 21 22  4  0
 22 23  1  0
 23 24  4  0
 24 25  4  0
 25 26  4  0
 26 27  4  0
 27 28  4  0
 28 29  4  0
 29 30  4  0
 30 31  4  0
 31 32  4  0
 32 33  4  0
 33 34  4  0
 34 35  4  0
 35 36  1  0
 36 37  4  0
 37 38  4  0
 38 39  4  0
 39 40  4  0
 40 41  4  0
 41 42  4  0
 42 43  4  0
 43 44  4  0
 44 45  4  0
 45 46  4  0
 46 47  4  0
 47 48  4  0
 48 49  4  0
 49 50  4  0
 50 51  4  0
 51 52  4  0
 52 53  4  0
 53 54  4  0
 54 55  4  0
 55 56  4  0
 56 57  4  0
 35 58  4  0
 58 59  4  0
 59 60  4  0
 60 61  4  0
 61 62  4  0
 62 63  4  0
 63 64  4  0
 64 65  4  0
 65 66  4  0
 10  1  4  0
 21 12  4  0
 66 23  4  0
  9  4  4  0
 19 14  4  0
 65 26  4  0
 22  6  4  0
 63 28  4  0
 61 30  4  0
 59 32  4  0
 57 36  4  0
 46 37  4  0
 57 48  4  0
 44 39  4  0
 55 50  4  0
  1 67  1  0
  2 68  1  0
  3 69  1  0
 10 70  1  0
 11 71  1  0
 15 72  1  0
 16 73  1  0
 17 74  1  0
 18 75  1  0
 24 76  1  0
 25 77  1  0
 27 78  1  0
 29 79  1  0
 31 80  1  0
 33 81  1  0
 34 82  1  0
 40 83  1  0
 41 84  1  0
 42 85  1  0
 43 86  1  0
 47 87  1  0
 51 88  1  0
 52 89  1  0
 53 90  1  0
 54 91  1  0
 58 92  1  0
 60 93  1  0
 62 94  1  0
 64 95  1  0
 66 96  1  0
M  END
