
     RDKit          3D

 96110  0  0  0  0  0  0  0  0999 V2000
   17.6476    4.2689   -1.6249 C   0  0  0  0  0  0  0  0  0  0  0  0
   16.6824    4.0401   -0.6431 C   0  0  0  0  0  0  0  0  0  0  0  0
   15.5292    3.3142   -0.9171 C   0  0  0  0  0  0  0  0  0  0  0  0
   14.6198    3.1132    0.0547 N   0  0  0  0  0  0  0  0  0  0  0  0
   13.5207    2.4052   -0.2585 C   0  0  0  0  0  0  0  0  0  0  0  0
   12.5563    2.1717    0.7087 C   0  0  0  0  0  0  0  0  0  0  0  0
   11.4058    1.4483    0.4383 C   0  0  0  0  0  0  0  0  0  0  0  0
   10.5004    1.2482    1.4119 N   0  0  0  0  0  0  0  0  0  0  0  0
    9.3996    0.5390    1.1024 C   0  0  0  0  0  0  0  0  0  0  0  0
    8.4381    0.3038    2.0739 C   0  0  0  0  0  0  0  0  0  0  0  0
    7.2835   -0.4312    1.7903 C   0  0  0  0  0  0  0  0  0  0  0  0
    7.0666   -0.9505    0.5095 C   0  0  0  0  0  0  0  0  0  0  0  0
    5.8594   -1.7347    0.1973 C   0  0  0  0  0  0  0  0  0  0  0  0
    5.9545   -2.9901   -0.4192 C   0  0  0  0  0  0  0  0  0  0  0  0
    4.8106   -3.7384   -0.7124 C   0  0  0  0  0  0  0  0  0  0  0  0
    3.5346   -3.2516   -0.3970 C   0  0  0  0  0  0  0  0  0  0  0  0
    2.3765   -3.9922   -0.6849 C   0  0  0  0  0  0  0  0  0  0  0  0
    1.0974   -3.5043   -0.3689 C   0  0  0  0  0  0  0  0  0  0  0  0
   -0.0610   -4.2454   -0.6567 C   0  0  0  0  0  0  0  0  0  0  0  0
   -1.3408   -3.7584   -0.3417 C   0  0  0  0  0  0  0  0  0  0  0  0
   -2.4990   -4.4999   -0.6297 C   0  0  0  0  0  0  0  0  0  0  0  0
   -3.7780   -4.0118   -0.3150 C   0  0  0  0  0  0  0  0  0  0  0  0
   -4.9343   -4.7511   -0.6015 C   0  0  0  0  0  0  0  0  0  0  0  0
   -6.2004   -4.2510   -0.2826 C   0  0  0  0  0  0  0  0  0  0  0  0
   -6.3486   -2.9994    0.3301 C   0  0  0  0  0  0  0  0  0  0  0  0
   -7.6816   -2.4724    0.6617 C   0  0  0  0  0  0  0  0  0  0  0  0
   -8.5853   -3.2171    1.4270 C   0  0  0  0  0  0  0  0  0  0  0  0
   -9.8501   -2.7056    1.7293 C   0  0  0  0  0  0  0  0  0  0  0  0
  -10.2463   -1.4536    1.2829 C   0  0  0  0  0  0  0  0  0  0  0  0
  -11.4730   -0.9937    1.5897 N   0  0  0  0  0  0  0  0  0  0  0  0
  -11.8133    0.2240    1.1323 C   0  0  0  0  0  0  0  0  0  0  0  0
  -13.0670    0.7398    1.4192 C   0  0  0  0  0  0  0  0  0  0  0  0
  -13.4669    1.9884    0.9706 C   0  0  0  0  0  0  0  0  0  0  0  0
  -14.6949    2.4431    1.2749 N   0  0  0  0  0  0  0  0  0  0  0  0
  -15.0396    3.6613    0.8170 C   0  0  0  0  0  0  0  0  0  0  0  0
  -16.2985    4.1761    1.1045 C   0  0  0  0  0  0  0  0  0  0  0  0
  -16.6910    5.4349    0.6472 C   0  0  0  0  0  0  0  0  0  0  0  0
  -15.8087    6.1928   -0.1114 C   0  0  0  0  0  0  0  0  0  0  0  0
  -14.5426    5.6845   -0.4052 C   0  0  0  0  0  0  0  0  0  0  0  0
  -14.1427    4.4319    0.0458 C   0  0  0  0  0  0  0  0  0  0  0  0
  -12.9135    3.9738   -0.2571 N   0  0  0  0  0  0  0  0  0  0  0  0
  -12.5725    2.7566    0.2013 C   0  0  0  0  0  0  0  0  0  0  0  0
  -11.3184    2.2406   -0.0851 C   0  0  0  0  0  0  0  0  0  0  0  0
  -10.9188    0.9913    0.3628 C   0  0  0  0  0  0  0  0  0  0  0  0
   -9.6918    0.5332    0.0573 N   0  0  0  0  0  0  0  0  0  0  0  0
   -9.3492   -0.6868    0.5118 C   0  0  0  0  0  0  0  0  0  0  0  0
   -8.0922   -1.2051    0.2173 C   0  0  0  0  0  0  0  0  0  0  0  0
   -5.1858   -2.2630    0.6151 C   0  0  0  0  0  0  0  0  0  0  0  0
   -3.9039   -2.7516    0.3018 C   0  0  0  0  0  0  0  0  0  0  0  0
   -2.7452   -2.0113    0.5904 C   0  0  0  0  0  0  0  0  0  0  0  0
   -1.4652   -2.4992    0.2762 C   0  0  0  0  0  0  0  0  0  0  0  0
   -0.3065   -1.7581    0.5642 C   0  0  0  0  0  0  0  0  0  0  0  0
    0.9738   -2.2450    0.2492 C   0  0  0  0  0  0  0  0  0  0  0  0
    2.1334   -1.5042    0.5366 C   0  0  0  0  0  0  0  0  0  0  0  0
    3.4135   -1.9921    0.2222 C   0  0  0  0  0  0  0  0  0  0  0  0
    4.5760   -1.2521    0.5103 C   0  0  0  0  0  0  0  0  0  0  0  0
    8.0468   -0.7033   -0.4666 C   0  0  0  0  0  0  0  0  0  0  0  0
    9.2012    0.0249   -0.1948 C   0  0  0  0  0  0  0  0  0  0  0  0
   10.1099    0.2271   -1.1680 N   0  0  0  0  0  0  0  0  0  0  0  0
   11.2102    0.9355   -0.8577 C   0  0  0  0  0  0  0  0  0  0  0  0
   12.1748    1.1690   -1.8253 C   0  0  0  0  0  0  0  0  0  0  0  0
   13.3261    1.8921   -1.5551 C   0  0  0  0  0  0  0  0  0  0  0  0
   14.2331    2.0909   -2.5279 N   0  0  0  0  0  0  0  0  0  0  0  0
   15.3345    2.7995   -2.2172 C   0  0  0  0  0  0  0  0  0  0  0  0
   16.3013    3.0325   -3.1883 C   0  0  0  0  0  0  0  0  0  0  0  0
   17.4561    3.7626   -2.9037 C   0  0  0  0  0  0  0  0  0  0  0  0
   18.5418    4.8396   -1.3875 H   0  0  0  0  0  0  0  0  0  0  0  0
   16.8303    4.4357    0.3590 H   0  0  0  0  0  0  0  0  0  0  0  0
   12.7069    2.5676    1.7099 H   0  0  0  0  0  0  0  0  0  0  0  0
    8.5926    0.6966    3.0760 H   0  0  0  0  0  0  0  0  0  0  0  0
    6.5624   -0.6057    2.5870 H   0  0  0  0  0  0  0  0  0  0  0  0
    6.9284   -3.4077   -0.6686 H   0  0  0  0  0  0  0  0  0  0  0  0
    4.9281   -4.7094   -1.1888 H   0  0  0  0  0  0  0  0  0  0  0  0
    2.4723   -4.9652   -1.1634 H   0  0  0  0  0  0  0  0  0  0  0  0
    0.0340   -5.2185   -1.1354 H   0  0  0  0  0  0  0  0  0  0  0  0
   -2.4050   -5.4735   -1.1073 H   0  0  0  0  0  0  0  0  0  0  0  0
   -4.8610   -5.7250   -1.0806 H   0  0  0  0  0  0  0  0  0  0  0  0
   -7.0756   -4.8483   -0.5313 H   0  0  0  0  0  0  0  0  0  0  0  0
   -8.3092   -4.1999    1.8053 H   0  0  0  0  0  0  0  0  0  0  0  0
  -10.5403   -3.2961    2.3273 H   0  0  0  0  0  0  0  0  0  0  0  0
  -13.7578    0.1466    2.0132 H   0  0  0  0  0  0  0  0  0  0  0  0
  -16.9878    3.5808    1.6988 H   0  0  0  0  0  0  0  0  0  0  0  0
  -17.6807    5.8170    0.8845 H   0  0  0  0  0  0  0  0  0  0  0  0
  -16.0998    7.1752   -0.4749 H   0  0  0  0  0  0  0  0  0  0  0  0
  -13.8498    6.2760   -0.9991 H   0  0  0  0  0  0  0  0  0  0  0  0
  -10.6276    2.8331   -0.6798 H   0  0  0  0  0  0  0  0  0  0  0  0
   -7.4211   -0.6006   -0.3908 H   0  0  0  0  0  0  0  0  0  0  0  0
   -5.2786   -1.2923    1.1004 H   0  0  0  0  0  0  0  0  0  0  0  0
   -2.8411   -1.0375    1.0676 H   0  0  0  0  0  0  0  0  0  0  0  0
   -0.4044   -0.7844    1.0413 H   0  0  0  0  0  0  0  0  0  0  0  0
    2.0377   -0.5304    1.0138 H   0  0  0  0  0  0  0  0  0  0  0  0
    4.4770   -0.2734    0.9779 H   0  0  0  0  0  0  0  0  0  0  0  0
    7.9097   -1.0797   -1.4790 H   0  0  0  0  0  0  0  0  0  0  0  0
   12.0241    0.7730   -2.8265 H   0  0  0  0  0  0  0  0  0  0  0  0
   16.1489    2.6350   -4.1890 H   0  0  0  0  0  0  0  0  0  0  0  0
   18.1987    3.9323   -3.6792 H   0  0  0  0  0  0  0  0  0  0  0  0
  1  2  4  0
  2  3  4  0
  3  4  4  0
  4  5  4  0
  5  6  4  0
  6  7  4  0
  7  8  4  0
  8  9  4  0
  9 10  4  0
 10 11  4  0
 11 12  4  0
 12 13  1  0
 13 14  4  0
 14 15  4  0
 15 16  4  0
 16 17  4  0
 17 18  4  0
 18 19  4  0
 19 20  4  0
 20 21  4  0
 21 22  4  0
 22 23  4  0
 23 24  4  0
 24 25  4  0
 25 26  1  0
 26 27  4  0
 27 28  4  0
 28 29  4  0
 29 30  4  0
 30 31  4  0
 31 32  4  0
 32 33  4  0
 33 34  4  0
 34 35  4  0
 35 36  4  0
 36 37  4  0
 37 38  4  0
 38 39  4  0
 39 40  4  0
 40 41  4  0
 41 42  4  0
 42 43  4  0
 43 44  4  0
 44 45  4  0
 45 46  4  0
 46 47  4  0
 25 48  4  0
 48 49  4  0
 49 50  4  0
 50 51  4  0
 51 52  4  0
 52 53  4  0
 53 54  4  0
 54 55  4  0
 55 56  4  0
 12 57  4  0
 57 58  4  0
 58 59  4  0
 59 60  4  0
 60 61  4  0
 61 62  4  0
 62 63  4  0
 63 64  4  0
 64 65  4  0
 65 66  4  0
 66  1  4  0
 64  3  4  0
 62  5  4  0
 60  7  4  0
 58  9  4  0
 56 13  4  0
 55 16  4  0
 53 18  4  0
 51 20  4  0
 49 22  4  0
 47 26  4  0
 46 29  4  0
 44 31  4  0
 42 33  4  0
 40 35  4  0
  1 67  1  0
  2 68  1  0
  6 69  1  0
 10 70  1  0
 11 71  1  0
 14 72  1  0
 15 73  1  0
 17 74  1  0
 19 75  1  0
 21 76  1  0
 23 77  1  0
 24 78  1  0
 27 79  1  0
 28 80  1  0
 32 81  1  0
 36 82  1  0
 37 83  1  0
 38 84  1  0
 39 85  1  0
 43 86  1  0
 47 87  1  0
 48 88  1  0
 50 89  1  0
 52 90  1  0
 54 91  1  0
 56 92  1  0
 57 93  1  0
 61 94  1  0
 65 95  1  0
 66 96  1  0
M  END
