
     RDKit          3D

100114  0  0  0  0  0  0  0  0999 V2000
   18.8263    1.0516   -1.7687 C   0  0  0  0  0  0  0  0  0  0  0  0
   18.9055   -0.2404   -2.2752 C   0  0  0  0  0  0  0  0  0  0  0  0
   17.7821   -1.0722   -2.2390 C   0  0  0  0  0  0  0  0  0  0  0  0
   16.5727   -0.6454   -1.7067 C   0  0  0  0  0  0  0  0  0  0  0  0
   15.5218   -1.4851   -1.6956 N   0  0  0  0  0  0  0  0  0  0  0  0
   14.3541   -1.0673   -1.1791 C   0  0  0  0  0  0  0  0  0  0  0  0
   13.2692   -1.9292   -1.1652 C   0  0  0  0  0  0  0  0  0  0  0  0
   12.0231   -1.5443   -0.6359 C   0  0  0  0  0  0  0  0  0  0  0  0
   10.9249   -2.4113   -0.6184 C   0  0  0  0  0  0  0  0  0  0  0  0
    9.7048   -1.9873   -0.0808 C   0  0  0  0  0  0  0  0  0  0  0  0
    8.5798   -2.8255   -0.0418 C   0  0  0  0  0  0  0  0  0  0  0  0
    7.3810   -2.3670    0.5053 C   0  0  0  0  0  0  0  0  0  0  0  0
    7.2832   -1.0687    1.0211 C   0  0  0  0  0  0  0  0  0  0  0  0
    6.0269   -0.5743    1.6068 C   0  0  0  0  0  0  0  0  0  0  0  0
    6.0007   -0.0235    2.8954 C   0  0  0  0  0  0  0  0  0  0  0  0
    4.8091    0.4487    3.4527 C   0  0  0  0  0  0  0  0  0  0  0  0
    3.6068    0.3842    2.7343 C   0  0  0  0  0  0  0  0  0  0  0  0
    2.4010    0.8556    3.2791 C   0  0  0  0  0  0  0  0  0  0  0  0
    1.1971    0.7931    2.5570 C   0  0  0  0  0  0  0  0  0  0  0  0
   -0.0099    1.2645    3.1002 C   0  0  0  0  0  0  0  0  0  0  0  0
   -1.2134    1.2031    2.3773 C   0  0  0  0  0  0  0  0  0  0  0  0
   -2.4201    1.6742    2.9211 C   0  0  0  0  0  0  0  0  0  0  0  0
   -3.6227    1.6124    2.1977 C   0  0  0  0  0  0  0  0  0  0  0  0
   -4.8276    2.0803    2.7403 C   0  0  0  0  0  0  0  0  0  0  0  0
   -6.0165    2.0112    2.0078 C   0  0  0  0  0  0  0  0  0  0  0  0
   -6.0370    1.4754    0.7128 C   0  0  0  0  0  0  0  0  0  0  0  0
   -7.2885    1.4063   -0.0593 C   0  0  0  0  0  0  0  0  0  0  0  0
   -8.4359    0.7915    0.4749 C   0  0  0  0  0  0  0  0  0  0  0  0
   -9.6361    0.7103   -0.2208 C   0  0  0  0  0  0  0  0  0  0  0  0
  -10.6923    0.1082    0.3543 N   0  0  0  0  0  0  0  0  0  0  0  0
  -11.8519    0.0309   -0.3196 C   0  0  0  0  0  0  0  0  0  0  0  0
  -12.9414   -0.5891    0.2703 C   0  0  0  0  0  0  0  0  0  0  0  0
  -14.1796   -0.6974   -0.3898 C   0  0  0  0  0  0  0  0  0  0  0  0
  -15.2819   -1.3228    0.2028 C   0  0  0  0  0  0  0  0  0  0  0  0
  -16.4951   -1.4089   -0.4879 C   0  0  0  0  0  0  0  0  0  0  0  0
  -17.6257   -2.0293    0.0730 C   0  0  0  0  0  0  0  0  0  0  0  0
  -18.8182   -2.0969   -0.6436 C   0  0  0  0  0  0  0  0  0  0  0  0
  -18.8846   -1.5469   -1.9184 C   0  0  0  0  0  0  0  0  0  0  0  0
  -17.7571   -0.9316   -2.4706 C   0  0  0  0  0  0  0  0  0  0  0  0
  -16.5562   -0.8501   -1.7787 C   0  0  0  0  0  0  0  0  0  0  0  0
  -15.5010   -0.2472   -2.3551 N   0  0  0  0  0  0  0  0  0  0  0  0
  -14.3413   -0.1711   -1.6813 C   0  0  0  0  0  0  0  0  0  0  0  0
  -13.2513    0.4486   -2.2712 C   0  0  0  0  0  0  0  0  0  0  0  0
  -12.0130    0.5568   -1.6110 C   0  0  0  0  0  0  0  0  0  0  0  0
  -10.9097    1.1816   -2.2026 C   0  0  0  0  0  0  0  0  0  0  0  0
   -9.6971    1.2672   -1.5102 C   0  0  0  0  0  0  0  0  0  0  0  0
   -8.5675    1.8855   -2.0677 C   0  0  0  0  0  0  0  0  0  0  0  0
   -7.3754    1.9526   -1.3459 C   0  0  0  0  0  0  0  0  0  0  0  0
   -4.8259    1.0073    0.1744 C   0  0  0  0  0  0  0  0  0  0  0  0
   -3.6204    1.0678    0.8983 C   0  0  0  0  0  0  0  0  0  0  0  0
   -2.4132    0.5958    0.3558 C   0  0  0  0  0  0  0  0  0  0  0  0
   -1.2100    0.6569    1.0793 C   0  0  0  0  0  0  0  0  0  0  0  0
   -0.0031    0.1851    0.5363 C   0  0  0  0  0  0  0  0  0  0  0  0
    1.2003    0.2463    1.2592 C   0  0  0  0  0  0  0  0  0  0  0  0
    2.4067   -0.2258    0.7151 C   0  0  0  0  0  0  0  0  0  0  0  0
    3.6105   -0.1646    1.4367 C   0  0  0  0  0  0  0  0  0  0  0  0
    4.8187   -0.6364    0.8916 C   0  0  0  0  0  0  0  0  0  0  0  0
    8.4254   -0.2492    0.9671 C   0  0  0  0  0  0  0  0  0  0  0  0
    9.6315   -0.6796    0.4295 C   0  0  0  0  0  0  0  0  0  0  0  0
   10.6820    0.1597    0.4153 N   0  0  0  0  0  0  0  0  0  0  0  0
   11.8489   -0.2578   -0.1024 C   0  0  0  0  0  0  0  0  0  0  0  0
   12.9333    0.6044   -0.1165 C   0  0  0  0  0  0  0  0  0  0  0  0
   14.1794    0.2193   -0.6453 C   0  0  0  0  0  0  0  0  0  0  0  0
   15.2771    1.0869   -0.6607 C   0  0  0  0  0  0  0  0  0  0  0  0
   16.4987    0.6642   -1.1953 C   0  0  0  0  0  0  0  0  0  0  0  0
   17.6251    1.5057   -1.2288 C   0  0  0  0  0  0  0  0  0  0  0  0
   19.6959    1.7032   -1.7938 H   0  0  0  0  0  0  0  0  0  0  0  0
   19.8368   -0.6068   -2.6991 H   0  0  0  0  0  0  0  0  0  0  0  0
   17.8518   -2.0818   -2.6372 H   0  0  0  0  0  0  0  0  0  0  0  0
   13.4025   -2.9268   -1.5784 H   0  0  0  0  0  0  0  0  0  0  0  0
   11.0206   -3.4166   -1.0225 H   0  0  0  0  0  0  0  0  0  0  0  0
    8.6308   -3.8394   -0.4317 H   0  0  0  0  0  0  0  0  0  0  0  0
    6.5243   -3.0377    0.5389 H   0  0  0  0  0  0  0  0  0  0  0  0
    6.9140    0.0348    3.4851 H   0  0  0  0  0  0  0  0  0  0  0  0
    4.8306    0.8679    4.4562 H   0  0  0  0  0  0  0  0  0  0  0  0
    2.4007    1.2795    4.2817 H   0  0  0  0  0  0  0  0  0  0  0  0
   -0.0127    1.6871    4.1036 H   0  0  0  0  0  0  0  0  0  0  0  0
   -2.4238    2.0953    3.9249 H   0  0  0  0  0  0  0  0  0  0  0  0
   -4.8526    2.5061    3.7410 H   0  0  0  0  0  0  0  0  0  0  0  0
   -6.9316    2.3926    2.4574 H   0  0  0  0  0  0  0  0  0  0  0  0
   -8.3956    0.3474    1.4682 H   0  0  0  0  0  0  0  0  0  0  0  0
  -12.8185   -0.9977    1.2711 H   0  0  0  0  0  0  0  0  0  0  0  0
  -15.1954   -1.7428    1.2023 H   0  0  0  0  0  0  0  0  0  0  0  0
  -17.5811   -2.4619    1.0699 H   0  0  0  0  0  0  0  0  0  0  0  0
  -19.6909   -2.5767   -0.2085 H   0  0  0  0  0  0  0  0  0  0  0  0
  -19.8091   -1.5932   -2.4878 H   0  0  0  0  0  0  0  0  0  0  0  0
  -17.8168   -0.5036   -3.4685 H   0  0  0  0  0  0  0  0  0  0  0  0
  -13.3744    0.8570   -3.2721 H   0  0  0  0  0  0  0  0  0  0  0  0
  -10.9953    1.6014   -3.2023 H   0  0  0  0  0  0  0  0  0  0  0  0
   -8.6085    2.3215   -3.0633 H   0  0  0  0  0  0  0  0  0  0  0  0
   -6.5149    2.4484   -1.7914 H   0  0  0  0  0  0  0  0  0  0  0  0
   -4.8227    0.5747   -0.8251 H   0  0  0  0  0  0  0  0  0  0  0  0
   -2.4104    0.1727   -0.6472 H   0  0  0  0  0  0  0  0  0  0  0  0
    0.0014   -0.2369   -0.4672 H   0  0  0  0  0  0  0  0  0  0  0  0
    2.4091   -0.6475   -0.2885 H   0  0  0  0  0  0  0  0  0  0  0  0
    4.8211   -1.0478   -0.1167 H   0  0  0  0  0  0  0  0  0  0  0  0
    8.3766    0.7692    1.3492 H   0  0  0  0  0  0  0  0  0  0  0  0
   12.7997    1.6019    0.2970 H   0  0  0  0  0  0  0  0  0  0  0  0
   15.1806    2.0918   -0.2560 H   0  0  0  0  0  0  0  0  0  0  0  0
   17.5705    2.5177   -0.8343 H   0  0  0  0  0  0  0  0  0  0  0  0
  1  2  4  0
  2  3  4  0
  3  4  4  0
  4  5  4  0
  5  6  4  0
  6  7  4  0
  7  8  4  0
  8  9  4  0
  9 10  4  0
 10 11  4  0
 11 12  4  0
 12 13  4  0
 13 14  1  0
 14 15  4  0
 15 16  4  0
 16 17  4  0
 17 18  4  0
 18 19  4  0
 19 20  4  0
 20 21  4  0
 21 22  4  0
 22 23  4  0
 23 24  4  0
 24 25  4  0
 25 26  4  0
 26 27  1  0
 27 28  4  0
 28 29  4  0
 29 30  4  0
 30 31  4  0
 31 32  4  0
 32 33  4  0
 33 34  4  0
 34 35  4  0
 35 36  4  0
 36 37  4  0
 37 38  4  0
 38 39  4  0
 39 40  4  0
 40 41  4  0
 41 42  4  0
 42 43  4  0
 43 44  4  0
 44 45  4  0
 45 46  4  0
 46 47  4  0
 47 48  4  0
 26 49  4  0
 49 50  4  0
 50 51  4  0
 51 52  4  0
 52 53  4  0
 53 54  4  0
 54 55  4  0
 55 56  4  0
 56 57  4  0
 13 58  4  0
 58 59  4  0
 59 60  4  0
 60 61  4  0
 61 62  4  0
 62 63  4  0
 63 64  4  0
 64 65  4  0
 65 66  4  0
 66  1  4  0
 65  4  4  0
 63  6  4  0
 61  8  4  0
 59 10  4  0
 57 14  4  0
 56 17  4  0
 54 19  4  0
 52 21  4  0
 50 23  4  0
 48 27  4  0
 46 29  4  0
 44 31  4  0
 42 33  4  0
 40 35  4  0
  1 67  1  0
  2 68  1  0
  3 69  1  0
  7 70  1  0
  9 71  1  0
 11 72  1  0
 12 73  1  0
 15 74  1  0
 16 75  1  0
 18 76  1  0
 20 77  1  0
 22 78  1  0
 24 79  1  0
 25 80  1  0
 28 81  1  0
 32 82  1  0
 34 83  1  0
 36 84  1  0
 37 85  1  0
 38 86  1  0
 39 87  1  0
 43 88  1  0
 45 89  1  0
 47 90  1  0
 48 91  1  0
 49 92  1  0
 51 93  1  0
 53 94  1  0
 55 95  1  0
 57 96  1  0
 58 97  1  0
 62 98  1  0
 64 99  1  0
 66100  1  0
M  END
