
     RDKit          3D

100114  0  0  0  0  0  0  0  0999 V2000
  -12.2006   -3.6708   -3.8035 C   0  0  0  0  0  0  0  0  0  0  0  0
  -12.3369   -2.3564   -3.3623 C   0  0  0  0  0  0  0  0  0  0  0  0
  -11.3475   -1.7739   -2.5496 C   0  0  0  0  0  0  0  0  0  0  0  0
  -11.4511   -0.4572   -2.0884 C   0  0  0  0  0  0  0  0  0  0  0  0
  -10.4448    0.0859   -1.2816 C   0  0  0  0  0  0  0  0  0  0  0  0
  -10.5103    1.4053   -0.7960 C   0  0  0  0  0  0  0  0  0  0  0  0
   -9.5127    1.9393    0.0041 C   0  0  0  0  0  0  0  0  0  0  0  0
   -9.6228    3.2026    0.4428 N   0  0  0  0  0  0  0  0  0  0  0  0
   -8.6570    3.7196    1.2222 C   0  0  0  0  0  0  0  0  0  0  0  0
   -8.8046    5.0292    1.6527 C   0  0  0  0  0  0  0  0  0  0  0  0
   -7.8561    5.6505    2.4627 C   0  0  0  0  0  0  0  0  0  0  0  0
   -6.7271    4.9458    2.8594 C   0  0  0  0  0  0  0  0  0  0  0  0
   -6.5340    3.6157    2.4510 C   0  0  0  0  0  0  0  0  0  0  0  0
   -5.3256    2.9140    2.9126 C   0  0  0  0  0  0  0  0  0  0  0  0
   -5.3887    2.0009    3.9723 C   0  0  0  0  0  0  0  0  0  0  0  0
   -4.2386    1.3436    4.4160 C   0  0  0  0  0  0  0  0  0  0  0  0
   -2.9951    1.5885    3.8143 C   0  0  0  0  0  0  0  0  0  0  0  0
   -1.8294    0.9382    4.2515 C   0  0  0  0  0  0  0  0  0  0  0  0
   -0.5833    1.1863    3.6516 C   0  0  0  0  0  0  0  0  0  0  0  0
    0.5831    0.5368    4.0894 C   0  0  0  0  0  0  0  0  0  0  0  0
    1.8293    0.7842    3.4900 C   0  0  0  0  0  0  0  0  0  0  0  0
    2.9945    0.1335    3.9289 C   0  0  0  0  0  0  0  0  0  0  0  0
    4.2400    0.3783    3.3279 C   0  0  0  0  0  0  0  0  0  0  0  0
    5.4033   -0.2735    3.7643 C   0  0  0  0  0  0  0  0  0  0  0  0
    6.6351   -0.0196    3.1562 C   0  0  0  0  0  0  0  0  0  0  0  0
    6.7327    0.8898    2.0966 C   0  0  0  0  0  0  0  0  0  0  0  0
    8.0279    1.1574    1.4547 C   0  0  0  0  0  0  0  0  0  0  0  0
    8.4896    0.4153    0.3280 C   0  0  0  0  0  0  0  0  0  0  0  0
    7.7655   -0.6328   -0.2758 C   0  0  0  0  0  0  0  0  0  0  0  0
    8.2783   -1.3225   -1.3811 C   0  0  0  0  0  0  0  0  0  0  0  0
    7.5750   -2.3734   -2.0010 C   0  0  0  0  0  0  0  0  0  0  0  0
    8.0898   -3.0524   -3.0942 C   0  0  0  0  0  0  0  0  0  0  0  0
    7.3794   -4.0491   -3.6488 N   0  0  0  0  0  0  0  0  0  0  0  0
    7.8840   -4.7048   -4.7091 C   0  0  0  0  0  0  0  0  0  0  0  0
    7.1536   -5.7360   -5.2848 C   0  0  0  0  0  0  0  0  0  0  0  0
    7.6308   -6.4499   -6.3883 C   0  0  0  0  0  0  0  0  0  0  0  0
    8.8680   -6.1313   -6.9360 C   0  0  0  0  0  0  0  0  0  0  0  0
    9.6219   -5.1013   -6.3779 C   0  0  0  0  0  0  0  0  0  0  0  0
    9.1364   -4.3870   -5.2678 C   0  0  0  0  0  0  0  0  0  0  0  0
    9.8663   -3.3474   -4.6815 C   0  0  0  0  0  0  0  0  0  0  0  0
    9.3482   -2.6609   -3.5775 C   0  0  0  0  0  0  0  0  0  0  0  0
   10.0498   -1.6101   -2.9573 C   0  0  0  0  0  0  0  0  0  0  0  0
    9.5338   -0.9329   -1.8638 C   0  0  0  0  0  0  0  0  0  0  0  0
   10.2425    0.0617   -1.3075 N   0  0  0  0  0  0  0  0  0  0  0  0
    9.7419    0.7178   -0.2460 C   0  0  0  0  0  0  0  0  0  0  0  0
   10.5016    1.7395    0.3035 C   0  0  0  0  0  0  0  0  0  0  0  0
   10.0639    2.4737    1.4043 C   0  0  0  0  0  0  0  0  0  0  0  0
    8.8323    2.1830    1.9765 C   0  0  0  0  0  0  0  0  0  0  0  0
    5.5698    1.5441    1.6611 C   0  0  0  0  0  0  0  0  0  0  0  0
    4.3234    1.2987    2.2629 C   0  0  0  0  0  0  0  0  0  0  0  0
    3.1580    1.9501    1.8260 C   0  0  0  0  0  0  0  0  0  0  0  0
    1.9118    1.7038    2.4265 C   0  0  0  0  0  0  0  0  0  0  0  0
    0.7456    2.3544    1.9896 C   0  0  0  0  0  0  0  0  0  0  0  0
   -0.5010    2.1066    2.5888 C   0  0  0  0  0  0  0  0  0  0  0  0
   -1.6669    2.7571    2.1510 C   0  0  0  0  0  0  0  0  0  0  0  0
   -2.9137    2.5092    2.7496 C   0  0  0  0  0  0  0  0  0  0  0  0
   -4.0808    3.1598    2.3116 C   0  0  0  0  0  0  0  0  0  0  0  0
   -7.5116    2.9964    1.6162 C   0  0  0  0  0  0  0  0  0  0  0  0
   -7.4169    1.6745    1.1342 C   0  0  0  0  0  0  0  0  0  0  0  0
   -8.4187    1.1258    0.3235 C   0  0  0  0  0  0  0  0  0  0  0  0
   -8.3511   -0.1940   -0.1635 C   0  0  0  0  0  0  0  0  0  0  0  0
   -9.3489   -0.7310   -0.9621 C   0  0  0  0  0  0  0  0  0  0  0  0
   -9.2387   -1.9974   -1.3984 N   0  0  0  0  0  0  0  0  0  0  0  0
  -10.2098   -2.5124   -2.1736 C   0  0  0  0  0  0  0  0  0  0  0  0
  -10.0992   -3.8202   -2.6273 C   0  0  0  0  0  0  0  0  0  0  0  0
  -11.0792   -4.4049   -3.4354 C   0  0  0  0  0  0  0  0  0  0  0  0
  -12.9660   -4.1191   -4.4316 H   0  0  0  0  0  0  0  0  0  0  0  0
  -13.2168   -1.7880   -3.6545 H   0  0  0  0  0  0  0  0  0  0  0  0
  -12.3155    0.1454   -2.3574 H   0  0  0  0  0  0  0  0  0  0  0  0
  -11.3604    2.0371   -1.0448 H   0  0  0  0  0  0  0  0  0  0  0  0
   -9.6886    5.5845    1.3463 H   0  0  0  0  0  0  0  0  0  0  0  0
   -8.0022    6.6785    2.7833 H   0  0  0  0  0  0  0  0  0  0  0  0
   -5.9926    5.4336    3.4984 H   0  0  0  0  0  0  0  0  0  0  0  0
   -6.3393    1.7970    4.4618 H   0  0  0  0  0  0  0  0  0  0  0  0
   -4.3227    0.6393    5.2409 H   0  0  0  0  0  0  0  0  0  0  0  0
   -1.8931    0.2273    5.0734 H   0  0  0  0  0  0  0  0  0  0  0  0
    0.5204   -0.1737    4.9118 H   0  0  0  0  0  0  0  0  0  0  0  0
    2.9306   -0.5759    4.7522 H   0  0  0  0  0  0  0  0  0  0  0  0
    5.3606   -0.9876    4.5838 H   0  0  0  0  0  0  0  0  0  0  0  0
    7.5219   -0.5395    3.5135 H   0  0  0  0  0  0  0  0  0  0  0  0
    6.7913   -0.9177    0.1175 H   0  0  0  0  0  0  0  0  0  0  0  0
    6.5995   -2.6736   -1.6233 H   0  0  0  0  0  0  0  0  0  0  0  0
    6.1849   -5.9913   -4.8616 H   0  0  0  0  0  0  0  0  0  0  0  0
    7.0334   -7.2519   -6.8144 H   0  0  0  0  0  0  0  0  0  0  0  0
    9.2448   -6.6824   -7.7938 H   0  0  0  0  0  0  0  0  0  0  0  0
   10.5892   -4.8575   -6.8112 H   0  0  0  0  0  0  0  0  0  0  0  0
   10.8383   -3.0725   -5.0844 H   0  0  0  0  0  0  0  0  0  0  0  0
   11.0251   -1.3081   -3.3329 H   0  0  0  0  0  0  0  0  0  0  0  0
   11.4673    1.9713   -0.1408 H   0  0  0  0  0  0  0  0  0  0  0  0
   10.6843    3.2681    1.8102 H   0  0  0  0  0  0  0  0  0  0  0  0
    8.4946    2.7595    2.8363 H   0  0  0  0  0  0  0  0  0  0  0  0
    5.6407    2.2537    0.8378 H   0  0  0  0  0  0  0  0  0  0  0  0
    3.2218    2.6606    1.0035 H   0  0  0  0  0  0  0  0  0  0  0  0
    0.8085    3.0665    1.1685 H   0  0  0  0  0  0  0  0  0  0  0  0
   -1.6027    3.4696    1.3302 H   0  0  0  0  0  0  0  0  0  0  0  0
   -4.0237    3.8702    1.4879 H   0  0  0  0  0  0  0  0  0  0  0  0
   -6.5536    1.0632    1.3898 H   0  0  0  0  0  0  0  0  0  0  0  0
   -7.4996   -0.8240    0.0858 H   0  0  0  0  0  0  0  0  0  0  0  0
   -9.2241   -4.4000   -2.3433 H   0  0  0  0  0  0  0  0  0  0  0  0
  -10.9605   -5.4311   -3.7731 H   0  0  0  0  0  0  0  0  0  0  0  0
  1  2  4  0
  2  3  4  0
  3  4  4  0
  4  5  4  0
  5  6  4  0
  6  7  4  0
  7  8  4  0
  8  9  4  0
  9 10  4  0
 10 11  4  0
 11 12  4  0
 12 13  4  0
 13 14  1  0
 14 15  4  0
 15 16  4  0
 16 17  4  0
 17 18  4  0
 18 19  4  0
 19 20  4  0
 20 21  4  0
 21 22  4  0
 22 23  4  0
 23 24  4  0
 24 25  4  0
 25 26  4  0
 26 27  1  0
 27 28  4  0
 28 29  4  0
 29 30  4  0
 30 31  4  0
 31 32  4  0
 32 33  4  0
 33 34  4  0
 34 35  4  0
 35 36  4  0
 36 37  4  0
 37 38  4  0
 38 39  4  0
 39 40  4  0
 40 41  4  0
 41 42  4  0
 42 43  4  0
 43 44  4  0
 44 45  4  0
 45 46  4  0
 46 47  4  0
 47 48  4  0
 26 49  4  0
 49 50  4  0
 50 51  4  0
 51 52  4  0
 52 53  4  0
 53 54  4  0
 54 55  4  0
 55 56  4  0
 56 57  4  0
 13 58  4  0
 58 59  4  0
 59 60  4  0
 60 61  4  0
 61 62  4  0
 62 63  4  0
 63 64  4  0
 64 65  4  0
 65 66  4  0
 66  1  4  0
 64  3  4  0
 62  5  4  0
 60  7  4  0
 58  9  4  0
 57 14  4  0
 56 17  4  0
 54 19  4  0
 52 21  4  0
 50 23  4  0
 48 27  4  0
 45 28  4  0
 43 30  4  0
 41 32  4  0
 39 34  4  0
  1 67  1  0
  2 68  1  0
  4 69  1  0
  6 70  1  0
 10 71  1  0
 11 72  1  0
 12 73  1  0
 15 74  1  0
 16 75  1  0
 18 76  1  0
 20 77  1  0
 22 78  1  0
 24 79  1  0
 25 80  1  0
 29 81  1  0
 31 82  1  0
 35 83  1  0
 36 84  1  0
 37 85  1  0
 38 86  1  0
 40 87  1  0
 42 88  1  0
 46 89  1  0
 47 90  1  0
 48 91  1  0
 49 92  1  0
 51 93  1  0
 53 94  1  0
 55 95  1  0
 57 96  1  0
 59 97  1  0
 61 98  1  0
 65 99  1  0
 66100  1  0
M  END
