
     RDKit          3D

100114  0  0  0  0  0  0  0  0999 V2000
    7.6731   -2.3269    6.9584 C   0  0  0  0  0  0  0  0  0  0  0  0
    9.0420   -2.1133    7.0705 C   0  0  0  0  0  0  0  0  0  0  0  0
    9.7890   -1.7769    5.9374 C   0  0  0  0  0  0  0  0  0  0  0  0
    9.2014   -1.6467    4.6859 C   0  0  0  0  0  0  0  0  0  0  0  0
    9.9649   -1.3209    3.6272 N   0  0  0  0  0  0  0  0  0  0  0  0
    9.3909   -1.1963    2.4181 C   0  0  0  0  0  0  0  0  0  0  0  0
   10.1721   -0.8618    1.3232 C   0  0  0  0  0  0  0  0  0  0  0  0
    9.6217   -0.7166    0.0349 C   0  0  0  0  0  0  0  0  0  0  0  0
   10.4015   -0.3804   -1.0752 C   0  0  0  0  0  0  0  0  0  0  0  0
    9.8149   -0.2451   -2.3392 C   0  0  0  0  0  0  0  0  0  0  0  0
   10.5994    0.0889   -3.4544 C   0  0  0  0  0  0  0  0  0  0  0  0
   10.0182    0.2237   -4.7078 C   0  0  0  0  0  0  0  0  0  0  0  0
    8.6500    0.0242   -4.8496 C   0  0  0  0  0  0  0  0  0  0  0  0
    7.8408   -0.3140   -3.7428 C   0  0  0  0  0  0  0  0  0  0  0  0
    6.3900   -0.5080   -3.9635 C   0  0  0  0  0  0  0  0  0  0  0  0
    5.9211   -1.4643   -4.8763 C   0  0  0  0  0  0  0  0  0  0  0  0
    4.5517   -1.6354   -5.1005 C   0  0  0  0  0  0  0  0  0  0  0  0
    3.6096   -0.8517   -4.4190 C   0  0  0  0  0  0  0  0  0  0  0  0
    2.2303   -1.0101   -4.6339 C   0  0  0  0  0  0  0  0  0  0  0  0
    1.2868   -0.2238   -3.9510 C   0  0  0  0  0  0  0  0  0  0  0  0
   -0.0932   -0.3803   -4.1660 C   0  0  0  0  0  0  0  0  0  0  0  0
   -1.0361    0.4069   -3.4833 C   0  0  0  0  0  0  0  0  0  0  0  0
   -2.4158    0.2507   -3.6983 C   0  0  0  0  0  0  0  0  0  0  0  0
   -3.3574    1.0394   -3.0164 C   0  0  0  0  0  0  0  0  0  0  0  0
   -4.7346    0.8832   -3.2292 C   0  0  0  0  0  0  0  0  0  0  0  0
   -5.6584    1.6778   -2.5443 C   0  0  0  0  0  0  0  0  0  0  0  0
   -5.2345    2.6494   -1.6281 C   0  0  0  0  0  0  0  0  0  0  0  0
   -6.2071    3.5082   -0.9202 C   0  0  0  0  0  0  0  0  0  0  0  0
   -6.1583    4.9015   -1.1410 C   0  0  0  0  0  0  0  0  0  0  0  0
   -7.0460    5.7623   -0.5067 C   0  0  0  0  0  0  0  0  0  0  0  0
   -7.9968    5.2412    0.3601 C   0  0  0  0  0  0  0  0  0  0  0  0
   -8.0632    3.8586    0.5943 C   0  0  0  0  0  0  0  0  0  0  0  0
   -9.0195    3.3334    1.4706 C   0  0  0  0  0  0  0  0  0  0  0  0
   -9.0807    1.9576    1.7075 C   0  0  0  0  0  0  0  0  0  0  0  0
  -10.0248    1.3901    2.5837 C   0  0  0  0  0  0  0  0  0  0  0  0
  -10.0768    0.0251    2.8146 C   0  0  0  0  0  0  0  0  0  0  0  0
  -10.9972   -0.4654    3.6611 N   0  0  0  0  0  0  0  0  0  0  0  0
  -11.0432   -1.7910    3.8833 C   0  0  0  0  0  0  0  0  0  0  0  0
  -11.9923   -2.3032    4.7580 C   0  0  0  0  0  0  0  0  0  0  0  0
  -12.0846   -3.6725    5.0254 C   0  0  0  0  0  0  0  0  0  0  0  0
  -11.2102   -4.5585    4.4070 C   0  0  0  0  0  0  0  0  0  0  0  0
  -10.2481   -4.0719    3.5249 C   0  0  0  0  0  0  0  0  0  0  0  0
  -10.1604   -2.6934    3.2601 C   0  0  0  0  0  0  0  0  0  0  0  0
   -9.2072   -2.1697    2.3804 C   0  0  0  0  0  0  0  0  0  0  0  0
   -9.1525   -0.7916    2.1441 C   0  0  0  0  0  0  0  0  0  0  0  0
   -8.2099   -0.2224    1.2679 C   0  0  0  0  0  0  0  0  0  0  0  0
   -8.1595    1.1431    1.0385 C   0  0  0  0  0  0  0  0  0  0  0  0
   -7.2415    1.6373    0.1937 N   0  0  0  0  0  0  0  0  0  0  0  0
   -7.1707    2.9683   -0.0427 C   0  0  0  0  0  0  0  0  0  0  0  0
   -3.8530    2.7994   -1.4154 C   0  0  0  0  0  0  0  0  0  0  0  0
   -2.9098    2.0084   -2.0963 C   0  0  0  0  0  0  0  0  0  0  0  0
   -1.5302    2.1621   -1.8801 C   0  0  0  0  0  0  0  0  0  0  0  0
   -0.5881    1.3740   -2.5628 C   0  0  0  0  0  0  0  0  0  0  0  0
    0.7916    1.5300   -2.3476 C   0  0  0  0  0  0  0  0  0  0  0  0
    1.7346    0.7432   -3.0303 C   0  0  0  0  0  0  0  0  0  0  0  0
    3.1143    0.9002   -2.8146 C   0  0  0  0  0  0  0  0  0  0  0  0
    4.0581    0.1149   -3.4977 C   0  0  0  0  0  0  0  0  0  0  0  0
    5.4396    0.2728   -3.2828 C   0  0  0  0  0  0  0  0  0  0  0  0
    8.4232   -0.4522   -2.4638 C   0  0  0  0  0  0  0  0  0  0  0  0
    7.6795   -0.7788   -1.3801 N   0  0  0  0  0  0  0  0  0  0  0  0
    8.2511   -0.9093   -0.1725 C   0  0  0  0  0  0  0  0  0  0  0  0
    7.4683   -1.2458    0.9203 C   0  0  0  0  0  0  0  0  0  0  0  0
    8.0166   -1.3915    2.2086 C   0  0  0  0  0  0  0  0  0  0  0  0
    7.2294   -1.7305    3.3147 C   0  0  0  0  0  0  0  0  0  0  0  0
    7.8144   -1.8640    4.5786 C   0  0  0  0  0  0  0  0  0  0  0  0
    7.0577   -2.2031    5.7148 C   0  0  0  0  0  0  0  0  0  0  0  0
    7.0866   -2.5889    7.8352 H   0  0  0  0  0  0  0  0  0  0  0  0
    9.5339   -2.2069    8.0352 H   0  0  0  0  0  0  0  0  0  0  0  0
   10.8596   -1.6116    6.0330 H   0  0  0  0  0  0  0  0  0  0  0  0
   11.2378   -0.7108    1.4817 H   0  0  0  0  0  0  0  0  0  0  0  0
   11.4715   -0.2245   -0.9534 H   0  0  0  0  0  0  0  0  0  0  0  0
   11.6708    0.2474   -3.3508 H   0  0  0  0  0  0  0  0  0  0  0  0
   10.6255    0.4864   -5.5701 H   0  0  0  0  0  0  0  0  0  0  0  0
    8.2005    0.1446   -5.8342 H   0  0  0  0  0  0  0  0  0  0  0  0
    6.6235   -2.0962   -5.4160 H   0  0  0  0  0  0  0  0  0  0  0  0
    4.2269   -2.3904   -5.8130 H   0  0  0  0  0  0  0  0  0  0  0  0
    1.8857   -1.7585   -5.3452 H   0  0  0  0  0  0  0  0  0  0  0  0
   -0.4397   -1.1278   -4.8775 H   0  0  0  0  0  0  0  0  0  0  0  0
   -2.7638   -0.4975   -4.4082 H   0  0  0  0  0  0  0  0  0  0  0  0
   -5.1036    0.1382   -3.9301 H   0  0  0  0  0  0  0  0  0  0  0  0
   -6.7212    1.5297   -2.7263 H   0  0  0  0  0  0  0  0  0  0  0  0
   -5.4214    5.3157   -1.8275 H   0  0  0  0  0  0  0  0  0  0  0  0
   -6.9969    6.8324   -0.6902 H   0  0  0  0  0  0  0  0  0  0  0  0
   -8.6886    5.9202    0.8541 H   0  0  0  0  0  0  0  0  0  0  0  0
   -9.7187    3.9979    1.9737 H   0  0  0  0  0  0  0  0  0  0  0  0
  -10.7396    2.0252    3.1027 H   0  0  0  0  0  0  0  0  0  0  0  0
  -12.6799   -1.6161    5.2458 H   0  0  0  0  0  0  0  0  0  0  0  0
  -12.8396   -4.0398    5.7157 H   0  0  0  0  0  0  0  0  0  0  0  0
  -11.2762   -5.6241    4.6103 H   0  0  0  0  0  0  0  0  0  0  0  0
   -9.5673   -4.7714    3.0452 H   0  0  0  0  0  0  0  0  0  0  0  0
   -8.5069   -2.8344    1.8798 H   0  0  0  0  0  0  0  0  0  0  0  0
   -7.4926   -0.8552    0.7493 H   0  0  0  0  0  0  0  0  0  0  0  0
   -3.5082    3.5408   -0.6963 H   0  0  0  0  0  0  0  0  0  0  0  0
   -1.1828    2.9081   -1.1674 H   0  0  0  0  0  0  0  0  0  0  0  0
    1.1387    2.2777   -1.6366 H   0  0  0  0  0  0  0  0  0  0  0  0
    3.4625    1.6457   -2.1018 H   0  0  0  0  0  0  0  0  0  0  0  0
    5.7872    1.0160   -2.5662 H   0  0  0  0  0  0  0  0  0  0  0  0
    6.4030   -1.3982    0.7585 H   0  0  0  0  0  0  0  0  0  0  0  0
    6.1608   -1.8910    3.1910 H   0  0  0  0  0  0  0  0  0  0  0  0
    5.9863   -2.3723    5.6353 H   0  0  0  0  0  0  0  0  0  0  0  0
  1  2  4  0
  2  3  4  0
  3  4  4  0
  4  5  4  0
  5  6  4  0
  6  7  4  0
  7  8  4  0
  8  9  4  0
  9 10  4  0
 10 11  4  0
 11 12  4  0
 12 13  4  0
 13 14  4  0
 14 15  1  0
 15 16  4  0
 16 17  4  0
 17 18  4  0
 18 19  4  0
 19 20  4  0
 20 21  4  0
 21 22  4  0
 22 23  4  0
 23 24  4  0
 24 25  4  0
 25 26  4  0
 26 27  4  0
 27 28  1  0
 28 29  4  0
 29 30  4  0
 30 31  4  0
 31 32  4  0
 32 33  4  0
 33 34  4  0
 34 35  4  0
 35 36  4  0
 36 37  4  0
 37 38  4  0
 38 39  4  0
 39 40  4  0
 40 41  4  0
 41 42  4  0
 42 43  4  0
 43 44  4  0
 44 45  4  0
 45 46  4  0
 46 47  4  0
 47 48  4  0
 48 49  4  0
 27 50  4  0
 50 51  4  0
 51 52  4  0
 52 53  4  0
 53 54  4  0
 54 55  4  0
 55 56  4  0
 56 57  4  0
 57 58  4  0
 14 59  4  0
 59 60  4  0
 60 61  4  0
 61 62  4  0
 62 63  4  0
 63 64  4  0
 64 65  4  0
 65 66  4  0
 66  1  4  0
 65  4  4  0
 63  6  4  0
 61  8  4  0
 59 10  4  0
 58 15  4  0
 57 18  4  0
 55 20  4  0
 53 22  4  0
 51 24  4  0
 49 28  4  0
 49 32  4  0
 47 34  4  0
 45 36  4  0
 43 38  4  0
  1 67  1  0
  2 68  1  0
  3 69  1  0
  7 70  1  0
  9 71  1  0
 11 72  1  0
 12 73  1  0
 13 74  1  0
 16 75  1  0
 17 76  1  0
 19 77  1  0
 21 78  1  0
 23 79  1  0
 25 80  1  0
 26 81  1  0
 29 82  1  0
 30 83  1  0
 31 84  1  0
 33 85  1  0
 35 86  1  0
 39 87  1  0
 40 88  1  0
 41 89  1  0
 42 90  1  0
 44 91  1  0
 46 92  1  0
 50 93  1  0
 52 94  1  0
 54 95  1  0
 56 96  1  0
 58 97  1  0
 62 98  1  0
 64 99  1  0
 66100  1  0
M  END
