
     RDKit          3D

100114  0  0  0  0  0  0  0  0999 V2000
   18.6141   -0.5335    3.0425 C   0  0  0  0  0  0  0  0  0  0  0  0
   17.6522    0.4277    2.7398 C   0  0  0  0  0  0  0  0  0  0  0  0
   16.4148    0.0458    2.1912 C   0  0  0  0  0  0  0  0  0  0  0  0
   15.4264    0.9841    1.8751 C   0  0  0  0  0  0  0  0  0  0  0  0
   14.2078    0.5642    1.3304 C   0  0  0  0  0  0  0  0  0  0  0  0
   13.1870    1.4748    0.9979 C   0  0  0  0  0  0  0  0  0  0  0  0
   11.9814    1.0554    0.4585 C   0  0  0  0  0  0  0  0  0  0  0  0
   11.0396    1.9657    0.1589 N   0  0  0  0  0  0  0  0  0  0  0  0
    9.8715    1.5536   -0.3643 C   0  0  0  0  0  0  0  0  0  0  0  0
    8.8963    2.4890   -0.6737 C   0  0  0  0  0  0  0  0  0  0  0  0
    7.6623    2.1145   -1.2196 C   0  0  0  0  0  0  0  0  0  0  0  0
    7.3692    0.7699   -1.4753 C   0  0  0  0  0  0  0  0  0  0  0  0
    6.0761    0.3693   -2.0496 C   0  0  0  0  0  0  0  0  0  0  0  0
    6.0129   -0.3896   -3.2259 C   0  0  0  0  0  0  0  0  0  0  0  0
    4.7833   -0.7677   -3.7728 C   0  0  0  0  0  0  0  0  0  0  0  0
    3.5799   -0.3976   -3.1556 C   0  0  0  0  0  0  0  0  0  0  0  0
    2.3364   -0.7691   -3.6923 C   0  0  0  0  0  0  0  0  0  0  0  0
    1.1311   -0.3988   -3.0725 C   0  0  0  0  0  0  0  0  0  0  0  0
   -0.1131   -0.7699   -3.6093 C   0  0  0  0  0  0  0  0  0  0  0  0
   -1.3191   -0.4004   -2.9901 C   0  0  0  0  0  0  0  0  0  0  0  0
   -2.5631   -0.7721   -3.5273 C   0  0  0  0  0  0  0  0  0  0  0  0
   -3.7683   -0.4021   -2.9079 C   0  0  0  0  0  0  0  0  0  0  0  0
   -5.0102   -0.7730   -3.4428 C   0  0  0  0  0  0  0  0  0  0  0  0
   -6.2005   -0.3961   -2.8145 C   0  0  0  0  0  0  0  0  0  0  0  0
   -6.1861    0.3615   -1.6354 C   0  0  0  0  0  0  0  0  0  0  0  0
   -7.4392    0.7579   -0.9746 C   0  0  0  0  0  0  0  0  0  0  0  0
   -7.7103    2.0988   -0.6783 C   0  0  0  0  0  0  0  0  0  0  0  0
   -8.9071    2.4686   -0.0516 C   0  0  0  0  0  0  0  0  0  0  0  0
   -9.8663    1.5318    0.3007 C   0  0  0  0  0  0  0  0  0  0  0  0
  -10.9989    1.9388    0.9006 N   0  0  0  0  0  0  0  0  0  0  0  0
  -11.9252    1.0267    1.2402 C   0  0  0  0  0  0  0  0  0  0  0  0
  -13.0945    1.4403    1.8582 C   0  0  0  0  0  0  0  0  0  0  0  0
  -14.0975    0.5272    2.2343 C   0  0  0  0  0  0  0  0  0  0  0  0
  -15.2797    0.9407    2.8584 C   0  0  0  0  0  0  0  0  0  0  0  0
  -16.2514   -0.0002    3.2157 C   0  0  0  0  0  0  0  0  0  0  0  0
  -17.4522    0.3751    3.8443 C   0  0  0  0  0  0  0  0  0  0  0  0
  -18.3982   -0.5887    4.1862 C   0  0  0  0  0  0  0  0  0  0  0  0
  -18.1482   -1.9261    3.9020 C   0  0  0  0  0  0  0  0  0  0  0  0
  -16.9523   -2.2929    3.2769 C   0  0  0  0  0  0  0  0  0  0  0  0
  -15.9923   -1.3531    2.9252 C   0  0  0  0  0  0  0  0  0  0  0  0
  -14.8584   -1.7584    2.3254 N   0  0  0  0  0  0  0  0  0  0  0  0
  -13.9330   -0.8451    1.9878 C   0  0  0  0  0  0  0  0  0  0  0  0
  -12.7636   -1.2586    1.3705 C   0  0  0  0  0  0  0  0  0  0  0  0
  -11.7608   -0.3455    0.9944 C   0  0  0  0  0  0  0  0  0  0  0  0
  -10.5789   -0.7594    0.3703 C   0  0  0  0  0  0  0  0  0  0  0  0
   -9.6074    0.1810    0.0106 C   0  0  0  0  0  0  0  0  0  0  0  0
   -8.4055   -0.1951   -0.6202 C   0  0  0  0  0  0  0  0  0  0  0  0
   -4.9385    0.7306   -1.1038 C   0  0  0  0  0  0  0  0  0  0  0  0
   -3.7306    0.3591   -1.7229 C   0  0  0  0  0  0  0  0  0  0  0  0
   -2.4861    0.7292   -1.1857 C   0  0  0  0  0  0  0  0  0  0  0  0
   -1.2799    0.3591   -1.8049 C   0  0  0  0  0  0  0  0  0  0  0  0
   -0.0355    0.7302   -1.2680 C   0  0  0  0  0  0  0  0  0  0  0  0
    1.1706    0.3608   -1.8874 C   0  0  0  0  0  0  0  0  0  0  0  0
    2.4150    0.7328   -1.3510 C   0  0  0  0  0  0  0  0  0  0  0  0
    3.6208    0.3641   -1.9708 C   0  0  0  0  0  0  0  0  0  0  0  0
    4.8670    0.7373   -1.4350 C   0  0  0  0  0  0  0  0  0  0  0  0
    8.3516   -0.1819   -1.1650 C   0  0  0  0  0  0  0  0  0  0  0  0
    9.5910    0.1992   -0.6146 C   0  0  0  0  0  0  0  0  0  0  0  0
   10.5794   -0.7392   -0.2973 C   0  0  0  0  0  0  0  0  0  0  0  0
   11.7981   -0.3201    0.2478 C   0  0  0  0  0  0  0  0  0  0  0  0
   12.8188   -1.2307    0.5804 C   0  0  0  0  0  0  0  0  0  0  0  0
   14.0245   -0.8116    1.1196 C   0  0  0  0  0  0  0  0  0  0  0  0
   14.9657   -1.7225    1.4188 N   0  0  0  0  0  0  0  0  0  0  0  0
   16.1347   -1.3111    1.9421 C   0  0  0  0  0  0  0  0  0  0  0  0
   17.1111   -2.2482    2.2532 C   0  0  0  0  0  0  0  0  0  0  0  0
   18.3433   -1.8749    2.7988 C   0  0  0  0  0  0  0  0  0  0  0  0
   19.5699   -0.2366    3.4665 H   0  0  0  0  0  0  0  0  0  0  0  0
   17.8707    1.4754    2.9330 H   0  0  0  0  0  0  0  0  0  0  0  0
   15.6060    2.0419    2.0534 H   0  0  0  0  0  0  0  0  0  0  0  0
   13.3315    2.5405    1.1623 H   0  0  0  0  0  0  0  0  0  0  0  0
    9.1006    3.5409   -0.4881 H   0  0  0  0  0  0  0  0  0  0  0  0
    6.9362    2.8905   -1.4545 H   0  0  0  0  0  0  0  0  0  0  0  0
    6.9272   -0.6839   -3.7378 H   0  0  0  0  0  0  0  0  0  0  0  0
    4.7759   -1.3531   -4.6895 H   0  0  0  0  0  0  0  0  0  0  0  0
    2.3064   -1.3565   -4.6082 H   0  0  0  0  0  0  0  0  0  0  0  0
   -0.1439   -1.3567   -4.5256 H   0  0  0  0  0  0  0  0  0  0  0  0
   -2.5941   -1.3593   -4.4435 H   0  0  0  0  0  0  0  0  0  0  0  0
   -5.0636   -1.3579   -4.3584 H   0  0  0  0  0  0  0  0  0  0  0  0
   -7.1464   -0.6909   -3.2649 H   0  0  0  0  0  0  0  0  0  0  0  0
   -6.9967    2.8763   -0.9444 H   0  0  0  0  0  0  0  0  0  0  0  0
   -9.0950    3.5179    0.1637 H   0  0  0  0  0  0  0  0  0  0  0  0
  -13.2241    2.5034    2.0500 H   0  0  0  0  0  0  0  0  0  0  0  0
  -15.4438    1.9956    3.0665 H   0  0  0  0  0  0  0  0  0  0  0  0
  -17.6547    1.4196    4.0698 H   0  0  0  0  0  0  0  0  0  0  0  0
  -19.3258   -0.2968    4.6720 H   0  0  0  0  0  0  0  0  0  0  0  0
  -18.8782   -2.6878    4.1637 H   0  0  0  0  0  0  0  0  0  0  0  0
  -16.7638   -3.3413    3.0577 H   0  0  0  0  0  0  0  0  0  0  0  0
  -12.6342   -2.3217    1.1790 H   0  0  0  0  0  0  0  0  0  0  0  0
  -10.4156   -1.8148    0.1640 H   0  0  0  0  0  0  0  0  0  0  0  0
   -8.2168   -1.2475   -0.8272 H   0  0  0  0  0  0  0  0  0  0  0  0
   -4.9060    1.3105   -0.1824 H   0  0  0  0  0  0  0  0  0  0  0  0
   -2.4556    1.3163   -0.2694 H   0  0  0  0  0  0  0  0  0  0  0  0
   -0.0050    1.3170   -0.3516 H   0  0  0  0  0  0  0  0  0  0  0  0
    2.4457    1.3201   -0.4348 H   0  0  0  0  0  0  0  0  0  0  0  0
    4.8980    1.3173   -0.5135 H   0  0  0  0  0  0  0  0  0  0  0  0
    8.1467   -1.2366   -1.3424 H   0  0  0  0  0  0  0  0  0  0  0  0
   10.4001   -1.7974   -0.4746 H   0  0  0  0  0  0  0  0  0  0  0  0
   12.6745   -2.2966    0.4164 H   0  0  0  0  0  0  0  0  0  0  0  0
   16.9066   -3.2997    2.0655 H   0  0  0  0  0  0  0  0  0  0  0  0
   19.0853   -2.6347    3.0305 H   0  0  0  0  0  0  0  0  0  0  0  0
  1  2  4  0
  2  3  4  0
  3  4  4  0
  4  5  4  0
  5  6  4  0
  6  7  4  0
  7  8  4  0
  8  9  4  0
  9 10  4  0
 10 11  4  0
 11 12  4  0
 12 13  1  0
 13 14  4  0
 14 15  4  0
 15 16  4  0
 16 17  4  0
 17 18  4  0
 18 19  4  0
 19 20  4  0
 20 21  4  0
 21 22  4  0
 22 23  4  0
 23 24  4  0
 24 25  4  0
 25 26  1  0
 26 27  4  0
 27 28  4  0
 28 29  4  0
 29 30  4  0
 30 31  4  0
 31 32  4  0
 32 33  4  0
 33 34  4  0
 34 35  4  0
 35 36  4  0
 36 37  4  0
 37 38  4  0
 38 39  4  0
 39 40  4  0
 40 41  4  0
 41 42  4  0
 42 43  4  0
 43 44  4  0
 44 45  4  0
 45 46  4  0
 46 47  4  0
 25 48  4  0
 48 49  4  0
 49 50  4  0
 50 51  4  0
 51 52  4  0
 52 53  4  0
 53 54  4  0
 54 55  4  0
 55 56  4  0
 12 57  4  0
 57 58  4  0
 58 59  4  0
 59 60  4  0
 60 61  4  0
 61 62  4  0
 62 63  4  0
 63 64  4  0
 64 65  4  0
 65 66  4  0
 66  1  4  0
 64  3  4  0
 62  5  4  0
 60  7  4  0
 58  9  4  0
 56 13  4  0
 55 16  4  0
 53 18  4  0
 51 20  4  0
 49 22  4  0
 47 26  4  0
 46 29  4  0
 44 31  4  0
 42 33  4  0
 40 35  4  0
  1 67  1  0
  2 68  1  0
  4 69  1  0
  6 70  1  0
 10 71  1  0
 11 72  1  0
 14 73  1  0
 15 74  1  0
 17 75  1  0
 19 76  1  0
 21 77  1  0
 23 78  1  0
 24 79  1  0
 27 80  1  0
 28 81  1  0
 32 82  1  0
 34 83  1  0
 36 84  1  0
 37 85  1  0
 38 86  1  0
 39 87  1  0
 43 88  1  0
 45 89  1  0
 47 90  1  0
 48 91  1  0
 50 92  1  0
 52 93  1  0
 54 94  1  0
 56 95  1  0
 57 96  1  0
 59 97  1  0
 61 98  1  0
 65 99  1  0
 66100  1  0
M  END
