
     RDKit          3D

100114  0  0  0  0  0  0  0  0999 V2000
  -18.7574    1.8949   -2.8555 C   0  0  0  0  0  0  0  0  0  0  0  0
  -18.6885    2.4559   -1.5856 C   0  0  0  0  0  0  0  0  0  0  0  0
  -17.5139    2.3391   -0.8361 C   0  0  0  0  0  0  0  0  0  0  0  0
  -16.3980    1.6723   -1.3242 C   0  0  0  0  0  0  0  0  0  0  0  0
  -15.2923    1.5883   -0.5627 N   0  0  0  0  0  0  0  0  0  0  0  0
  -14.2154    0.9420   -1.0396 C   0  0  0  0  0  0  0  0  0  0  0  0
  -13.0744    0.8528   -0.2585 C   0  0  0  0  0  0  0  0  0  0  0  0
  -11.9181    0.1874   -0.7076 C   0  0  0  0  0  0  0  0  0  0  0  0
  -10.7643    0.0946    0.0786 C   0  0  0  0  0  0  0  0  0  0  0  0
   -9.6363   -0.5771   -0.4052 C   0  0  0  0  0  0  0  0  0  0  0  0
   -8.4565   -0.6932    0.3554 C   0  0  0  0  0  0  0  0  0  0  0  0
   -7.3322   -1.3677   -0.1428 C   0  0  0  0  0  0  0  0  0  0  0  0
   -6.1024   -1.4873    0.6549 C   0  0  0  0  0  0  0  0  0  0  0  0
   -6.1297   -2.0353    1.9444 C   0  0  0  0  0  0  0  0  0  0  0  0
   -4.9609   -2.1478    2.7029 C   0  0  0  0  0  0  0  0  0  0  0  0
   -3.7298   -1.7127    2.1920 C   0  0  0  0  0  0  0  0  0  0  0  0
   -2.5468   -1.8173    2.9420 C   0  0  0  0  0  0  0  0  0  0  0  0
   -1.3137   -1.3796    2.4299 C   0  0  0  0  0  0  0  0  0  0  0  0
   -0.1297   -1.4833    3.1796 C   0  0  0  0  0  0  0  0  0  0  0  0
    1.1034   -1.0452    2.6682 C   0  0  0  0  0  0  0  0  0  0  0  0
    2.2868   -1.1494    3.4185 C   0  0  0  0  0  0  0  0  0  0  0  0
    3.5190   -0.7107    2.9066 C   0  0  0  0  0  0  0  0  0  0  0  0
    4.7009   -0.8148    3.6537 C   0  0  0  0  0  0  0  0  0  0  0  0
    5.9194   -0.3736    3.1294 C   0  0  0  0  0  0  0  0  0  0  0  0
    5.9929    0.1847    1.8459 C   0  0  0  0  0  0  0  0  0  0  0  0
    7.2752    0.6489    1.2943 C   0  0  0  0  0  0  0  0  0  0  0  0
    8.3914   -0.1990    1.2398 C   0  0  0  0  0  0  0  0  0  0  0  0
    9.6211    0.2430    0.7144 C   0  0  0  0  0  0  0  0  0  0  0  0
   10.7417   -0.5924    0.6539 C   0  0  0  0  0  0  0  0  0  0  0  0
   11.9464   -0.1148    0.1265 C   0  0  0  0  0  0  0  0  0  0  0  0
   13.0975   -0.9210    0.0498 C   0  0  0  0  0  0  0  0  0  0  0  0
   14.2890   -0.4439   -0.4718 C   0  0  0  0  0  0  0  0  0  0  0  0
   15.3593   -1.2546   -0.5209 N   0  0  0  0  0  0  0  0  0  0  0  0
   16.5136   -0.7868   -1.0283 C   0  0  0  0  0  0  0  0  0  0  0  0
   17.6228   -1.6204   -1.0816 C   0  0  0  0  0  0  0  0  0  0  0  0
   18.8466   -1.1852   -1.5990 C   0  0  0  0  0  0  0  0  0  0  0  0
   18.9731    0.1139   -2.0770 C   0  0  0  0  0  0  0  0  0  0  0  0
   17.8762    0.9714   -2.0355 C   0  0  0  0  0  0  0  0  0  0  0  0
   16.6480    0.5278   -1.5139 C   0  0  0  0  0  0  0  0  0  0  0  0
   15.5265    1.3616   -1.4568 C   0  0  0  0  0  0  0  0  0  0  0  0
   14.3220    0.8828   -0.9304 C   0  0  0  0  0  0  0  0  0  0  0  0
   13.1708    1.6887   -0.8542 C   0  0  0  0  0  0  0  0  0  0  0  0
   11.9797    1.2116   -0.3317 C   0  0  0  0  0  0  0  0  0  0  0  0
   10.9099    2.0226   -0.2804 N   0  0  0  0  0  0  0  0  0  0  0  0
    9.7568    1.5552    0.2290 C   0  0  0  0  0  0  0  0  0  0  0  0
    8.6499    2.3879    0.2851 C   0  0  0  0  0  0  0  0  0  0  0  0
    7.4253    1.9523    0.8065 C   0  0  0  0  0  0  0  0  0  0  0  0
    4.8047    0.2874    1.1021 C   0  0  0  0  0  0  0  0  0  0  0  0
    3.5705   -0.1530    1.6139 C   0  0  0  0  0  0  0  0  0  0  0  0
    2.3870   -0.0505    0.8639 C   0  0  0  0  0  0  0  0  0  0  0  0
    1.1540   -0.4896    1.3754 C   0  0  0  0  0  0  0  0  0  0  0  0
   -0.0299   -0.3861    0.6254 C   0  0  0  0  0  0  0  0  0  0  0  0
   -1.2631   -0.8243    1.1367 C   0  0  0  0  0  0  0  0  0  0  0  0
   -2.4468   -0.7204    0.3865 C   0  0  0  0  0  0  0  0  0  0  0  0
   -3.6801   -1.1583    0.8976 C   0  0  0  0  0  0  0  0  0  0  0  0
   -4.8656   -1.0541    0.1472 C   0  0  0  0  0  0  0  0  0  0  0  0
   -7.4218   -1.9228   -1.4247 C   0  0  0  0  0  0  0  0  0  0  0  0
   -8.5973   -1.8060   -2.1770 C   0  0  0  0  0  0  0  0  0  0  0  0
   -9.7123   -1.1409   -1.6906 C   0  0  0  0  0  0  0  0  0  0  0  0
  -10.8166   -1.0568   -2.4531 N   0  0  0  0  0  0  0  0  0  0  0  0
  -11.8941   -0.4103   -1.9774 C   0  0  0  0  0  0  0  0  0  0  0  0
  -13.0350   -0.3209   -2.7587 C   0  0  0  0  0  0  0  0  0  0  0  0
  -14.1915    0.3442   -2.3097 C   0  0  0  0  0  0  0  0  0  0  0  0
  -15.3455    0.4361   -3.0957 C   0  0  0  0  0  0  0  0  0  0  0  0
  -16.4738    1.1062   -2.6110 C   0  0  0  0  0  0  0  0  0  0  0  0
  -17.6525    1.2203   -3.3698 C   0  0  0  0  0  0  0  0  0  0  0  0
  -19.6676    1.9822   -3.4434 H   0  0  0  0  0  0  0  0  0  0  0  0
  -19.5439    2.9849   -1.1732 H   0  0  0  0  0  0  0  0  0  0  0  0
  -17.4676    2.7807    0.1566 H   0  0  0  0  0  0  0  0  0  0  0  0
  -13.0903    1.3150    0.7263 H   0  0  0  0  0  0  0  0  0  0  0  0
  -10.7447    0.5457    1.0682 H   0  0  0  0  0  0  0  0  0  0  0  0
   -8.4106   -0.2410    1.3451 H   0  0  0  0  0  0  0  0  0  0  0  0
   -7.0662   -2.3936    2.3678 H   0  0  0  0  0  0  0  0  0  0  0  0
   -5.0217   -2.5823    3.6983 H   0  0  0  0  0  0  0  0  0  0  0  0
   -2.5874   -2.2464    3.9416 H   0  0  0  0  0  0  0  0  0  0  0  0
   -0.1681   -1.9125    4.1793 H   0  0  0  0  0  0  0  0  0  0  0  0
    2.2481   -1.5791    4.4179 H   0  0  0  0  0  0  0  0  0  0  0  0
    4.6842   -1.2390    4.6552 H   0  0  0  0  0  0  0  0  0  0  0  0
    6.8148   -0.4587    3.7422 H   0  0  0  0  0  0  0  0  0  0  0  0
    8.3011   -1.2225    1.6008 H   0  0  0  0  0  0  0  0  0  0  0  0
   10.6769   -1.6152    1.0183 H   0  0  0  0  0  0  0  0  0  0  0  0
   13.0695   -1.9488    0.4056 H   0  0  0  0  0  0  0  0  0  0  0  0
   17.5317   -2.6382   -0.7095 H   0  0  0  0  0  0  0  0  0  0  0  0
   19.6949   -1.8641   -1.6257 H   0  0  0  0  0  0  0  0  0  0  0  0
   19.9215    0.4586   -2.4805 H   0  0  0  0  0  0  0  0  0  0  0  0
   17.9827    1.9865   -2.4113 H   0  0  0  0  0  0  0  0  0  0  0  0
   15.5912    2.3840   -1.8222 H   0  0  0  0  0  0  0  0  0  0  0  0
   13.1990    2.7164   -1.2100 H   0  0  0  0  0  0  0  0  0  0  0  0
    8.7400    3.4070   -0.0835 H   0  0  0  0  0  0  0  0  0  0  0  0
    6.5919    2.6513    0.8382 H   0  0  0  0  0  0  0  0  0  0  0  0
    4.8430    0.7088    0.0985 H   0  0  0  0  0  0  0  0  0  0  0  0
    2.4260    0.3790   -0.1357 H   0  0  0  0  0  0  0  0  0  0  0  0
    0.0108    0.0435   -0.3741 H   0  0  0  0  0  0  0  0  0  0  0  0
   -2.4075   -0.2910   -0.6132 H   0  0  0  0  0  0  0  0  0  0  0  0
   -4.8275   -0.6154   -0.8491 H   0  0  0  0  0  0  0  0  0  0  0  0
   -6.5794   -2.4653   -1.8496 H   0  0  0  0  0  0  0  0  0  0  0  0
   -8.6421   -2.2499   -3.1688 H   0  0  0  0  0  0  0  0  0  0  0  0
  -13.0186   -0.7835   -3.7433 H   0  0  0  0  0  0  0  0  0  0  0  0
  -15.3654   -0.0143   -4.0855 H   0  0  0  0  0  0  0  0  0  0  0  0
  -17.7140    0.7840   -4.3642 H   0  0  0  0  0  0  0  0  0  0  0  0
  1  2  4  0
  2  3  4  0
  3  4  4  0
  4  5  4  0
  5  6  4  0
  6  7  4  0
  7  8  4  0
  8  9  4  0
  9 10  4  0
 10 11  4  0
 11 12  4  0
 12 13  1  0
 13 14  4  0
 14 15  4  0
 15 16  4  0
 16 17  4  0
 17 18  4  0
 18 19  4  0
 19 20  4  0
 20 21  4  0
 21 22  4  0
 22 23  4  0
 23 24  4  0
 24 25  4  0
 25 26  1  0
 26 27  4  0
 27 28  4  0
 28 29  4  0
 29 30  4  0
 30 31  4  0
 31 32  4  0
 32 33  4  0
 33 34  4  0
 34 35  4  0
 35 36  4  0
 36 37  4  0
 37 38  4  0
 38 39  4  0
 39 40  4  0
 40 41  4  0
 41 42  4  0
 42 43  4  0
 43 44  4  0
 44 45  4  0
 45 46  4  0
 46 47  4  0
 25 48  4  0
 48 49  4  0
 49 50  4  0
 50 51  4  0
 51 52  4  0
 52 53  4  0
 53 54  4  0
 54 55  4  0
 55 56  4  0
 12 57  4  0
 57 58  4  0
 58 59  4  0
 59 60  4  0
 60 61  4  0
 61 62  4  0
 62 63  4  0
 63 64  4  0
 64 65  4  0
 65 66  4  0
 66  1  4  0
 65  4  4  0
 63  6  4  0
 61  8  4  0
 59 10  4  0
 56 13  4  0
 55 16  4  0
 53 18  4  0
 51 20  4  0
 49 22  4  0
 47 26  4  0
 45 28  4  0
 43 30  4  0
 41 32  4  0
 39 34  4  0
  1 67  1  0
  2 68  1  0
  3 69  1  0
  7 70  1  0
  9 71  1  0
 11 72  1  0
 14 73  1  0
 15 74  1  0
 17 75  1  0
 19 76  1  0
 21 77  1  0
 23 78  1  0
 24 79  1  0
 27 80  1  0
 29 81  1  0
 31 82  1  0
 35 83  1  0
 36 84  1  0
 37 85  1  0
 38 86  1  0
 40 87  1  0
 42 88  1  0
 46 89  1  0
 47 90  1  0
 48 91  1  0
 50 92  1  0
 52 93  1  0
 54 94  1  0
 56 95  1  0
 57 96  1  0
 58 97  1  0
 62 98  1  0
 64 99  1  0
 66100  1  0
M  END
