
     RDKit          3D

 96110  0  0  0  0  0  0  0  0999 V2000
  -13.9374    0.4741   -3.0120 C   0  0  0  0  0  0  0  0  0  0  0  0
  -13.8648   -0.7808   -2.4339 C   0  0  0  0  0  0  0  0  0  0  0  0
  -12.7369   -1.1521   -1.6995 C   0  0  0  0  0  0  0  0  0  0  0  0
  -11.6437   -0.2452   -1.5342 C   0  0  0  0  0  0  0  0  0  0  0  0
  -11.7069    1.0454   -2.1228 C   0  0  0  0  0  0  0  0  0  0  0  0
  -12.8782    1.3659   -2.8574 C   0  0  0  0  0  0  0  0  0  0  0  0
  -10.6114    1.9539   -1.9571 C   0  0  0  0  0  0  0  0  0  0  0  0
  -10.5953    3.2600   -2.5116 C   0  0  0  0  0  0  0  0  0  0  0  0
   -9.5248    4.1352   -2.3434 C   0  0  0  0  0  0  0  0  0  0  0  0
   -8.4226    3.7336   -1.6099 C   0  0  0  0  0  0  0  0  0  0  0  0
   -8.3819    2.4588   -1.0413 C   0  0  0  0  0  0  0  0  0  0  0  0
   -9.4741    1.5541   -1.2061 C   0  0  0  0  0  0  0  0  0  0  0  0
   -9.4104    0.2657   -0.6173 C   0  0  0  0  0  0  0  0  0  0  0  0
   -8.2366   -0.0539    0.1181 C   0  0  0  0  0  0  0  0  0  0  0  0
   -7.1593    0.8292    0.2848 C   0  0  0  0  0  0  0  0  0  0  0  0
   -5.9704    0.4406    1.0587 C   0  0  0  0  0  0  0  0  0  0  0  0
   -6.0798    0.0468    2.3989 C   0  0  0  0  0  0  0  0  0  0  0  0
   -4.9491   -0.3195    3.1346 C   0  0  0  0  0  0  0  0  0  0  0  0
   -3.6753   -0.3030    2.5480 C   0  0  0  0  0  0  0  0  0  0  0  0
   -2.5294   -0.6683    3.2737 C   0  0  0  0  0  0  0  0  0  0  0  0
   -1.2537   -0.6530    2.6850 C   0  0  0  0  0  0  0  0  0  0  0  0
   -0.1070   -1.0187    3.4102 C   0  0  0  0  0  0  0  0  0  0  0  0
    1.1689   -1.0044    2.8220 C   0  0  0  0  0  0  0  0  0  0  0  0
    2.3150   -1.3711    3.5477 C   0  0  0  0  0  0  0  0  0  0  0  0
    3.5904   -1.3562    2.9589 C   0  0  0  0  0  0  0  0  0  0  0  0
    4.7355   -1.7231    3.6811 C   0  0  0  0  0  0  0  0  0  0  0  0
    5.9975   -1.7013    3.0801 C   0  0  0  0  0  0  0  0  0  0  0  0
    6.1514   -1.3112    1.7434 C   0  0  0  0  0  0  0  0  0  0  0  0
    7.4789   -1.2803    1.1114 C   0  0  0  0  0  0  0  0  0  0  0  0
    8.2707   -2.4236    1.0419 C   0  0  0  0  0  0  0  0  0  0  0  0
    9.5310   -2.3949    0.4372 C   0  0  0  0  0  0  0  0  0  0  0  0
   10.0414   -1.1859   -0.1253 C   0  0  0  0  0  0  0  0  0  0  0  0
   11.3241   -1.1798   -0.7351 C   0  0  0  0  0  0  0  0  0  0  0  0
   12.0397   -2.4051   -0.7507 C   0  0  0  0  0  0  0  0  0  0  0  0
   11.5319   -3.5794   -0.1999 C   0  0  0  0  0  0  0  0  0  0  0  0
   10.2811   -3.5719    0.3916 C   0  0  0  0  0  0  0  0  0  0  0  0
   11.8356    0.0342   -1.2985 C   0  0  0  0  0  0  0  0  0  0  0  0
   13.1059    0.1256   -1.9250 C   0  0  0  0  0  0  0  0  0  0  0  0
   13.5930    1.3120   -2.4694 C   0  0  0  0  0  0  0  0  0  0  0  0
   12.8230    2.4599   -2.4076 C   0  0  0  0  0  0  0  0  0  0  0  0
   11.5648    2.4304   -1.8033 C   0  0  0  0  0  0  0  0  0  0  0  0
   11.0545    1.2186   -1.2411 C   0  0  0  0  0  0  0  0  0  0  0  0
    9.7721    1.2118   -0.6312 C   0  0  0  0  0  0  0  0  0  0  0  0
    9.0567    2.4378   -0.6155 C   0  0  0  0  0  0  0  0  0  0  0  0
    9.5640    3.6128   -1.1664 C   0  0  0  0  0  0  0  0  0  0  0  0
   10.8145    3.6068   -1.7582 C   0  0  0  0  0  0  0  0  0  0  0  0
    9.2606   -0.0036   -0.0687 C   0  0  0  0  0  0  0  0  0  0  0  0
    7.9883   -0.0963    0.5576 C   0  0  0  0  0  0  0  0  0  0  0  0
    5.0012   -0.9464    1.0233 C   0  0  0  0  0  0  0  0  0  0  0  0
    3.7239   -0.9639    1.6122 C   0  0  0  0  0  0  0  0  0  0  0  0
    2.5773   -0.5990    0.8869 C   0  0  0  0  0  0  0  0  0  0  0  0
    1.3014   -0.6142    1.4753 C   0  0  0  0  0  0  0  0  0  0  0  0
    0.1547   -0.2485    0.7501 C   0  0  0  0  0  0  0  0  0  0  0  0
   -1.1213   -0.2630    1.3384 C   0  0  0  0  0  0  0  0  0  0  0  0
   -2.2678    0.1030    0.6128 C   0  0  0  0  0  0  0  0  0  0  0  0
   -3.5438    0.0887    1.2008 C   0  0  0  0  0  0  0  0  0  0  0  0
   -4.6921    0.4554    0.4752 C   0  0  0  0  0  0  0  0  0  0  0  0
   -7.2524    2.0865   -0.3066 C   0  0  0  0  0  0  0  0  0  0  0  0
  -10.5061   -0.6441   -0.7833 C   0  0  0  0  0  0  0  0  0  0  0  0
  -10.5233   -1.9508   -0.2289 C   0  0  0  0  0  0  0  0  0  0  0  0
  -11.5944   -2.8262   -0.3964 C   0  0  0  0  0  0  0  0  0  0  0  0
  -12.6970   -2.4260   -1.1299 C   0  0  0  0  0  0  0  0  0  0  0  0
  -14.8149    0.7634   -3.5838 H   0  0  0  0  0  0  0  0  0  0  0  0
  -14.6986   -1.4673   -2.5625 H   0  0  0  0  0  0  0  0  0  0  0  0
  -12.9954    2.3342   -3.3348 H   0  0  0  0  0  0  0  0  0  0  0  0
  -11.4302    3.6330   -3.0972 H   0  0  0  0  0  0  0  0  0  0  0  0
   -9.5563    5.1272   -2.7858 H   0  0  0  0  0  0  0  0  0  0  0  0
   -7.5940    4.4274   -1.4860 H   0  0  0  0  0  0  0  0  0  0  0  0
   -8.1326   -1.0329    0.5788 H   0  0  0  0  0  0  0  0  0  0  0  0
   -7.0525    0.0339    2.8873 H   0  0  0  0  0  0  0  0  0  0  0  0
   -5.0732   -0.6155    4.1739 H   0  0  0  0  0  0  0  0  0  0  0  0
   -2.6327   -0.9703    4.3144 H   0  0  0  0  0  0  0  0  0  0  0  0
   -0.2100   -1.3202    4.4512 H   0  0  0  0  0  0  0  0  0  0  0  0
    2.2128   -1.6738    4.5883 H   0  0  0  0  0  0  0  0  0  0  0  0
    4.6566   -2.0270    4.7225 H   0  0  0  0  0  0  0  0  0  0  0  0
    6.8673   -1.9809    3.6717 H   0  0  0  0  0  0  0  0  0  0  0  0
    7.8898   -3.3556    1.4573 H   0  0  0  0  0  0  0  0  0  0  0  0
   13.0257   -2.4751   -1.2001 H   0  0  0  0  0  0  0  0  0  0  0  0
   12.1154   -4.4955   -0.2353 H   0  0  0  0  0  0  0  0  0  0  0  0
    9.8967   -4.4963    0.8172 H   0  0  0  0  0  0  0  0  0  0  0  0
   13.7571   -0.7396   -2.0051 H   0  0  0  0  0  0  0  0  0  0  0  0
   14.5723    1.3345   -2.9395 H   0  0  0  0  0  0  0  0  0  0  0  0
   13.2153    3.3792   -2.8365 H   0  0  0  0  0  0  0  0  0  0  0  0
    8.0709    2.5095   -0.1655 H   0  0  0  0  0  0  0  0  0  0  0  0
    8.9798    4.5284   -1.1303 H   0  0  0  0  0  0  0  0  0  0  0  0
   11.1984    4.5310   -2.1843 H   0  0  0  0  0  0  0  0  0  0  0  0
    7.3556    0.7838    0.6381 H   0  0  0  0  0  0  0  0  0  0  0  0
    5.1036   -0.6524   -0.0205 H   0  0  0  0  0  0  0  0  0  0  0  0
    2.6813   -0.2983   -0.1543 H   0  0  0  0  0  0  0  0  0  0  0  0
    0.2568    0.0526   -0.2911 H   0  0  0  0  0  0  0  0  0  0  0  0
   -2.1655    0.4040   -0.4284 H   0  0  0  0  0  0  0  0  0  0  0  0
   -4.5930    0.7482   -0.5692 H   0  0  0  0  0  0  0  0  0  0  0  0
   -6.4316    2.7913   -0.1804 H   0  0  0  0  0  0  0  0  0  0  0  0
   -9.6887   -2.3257    0.3561 H   0  0  0  0  0  0  0  0  0  0  0  0
  -11.5624   -3.8180    0.0465 H   0  0  0  0  0  0  0  0  0  0  0  0
  -13.5259   -3.1193   -1.2531 H   0  0  0  0  0  0  0  0  0  0  0  0
  1  2  4  0
  2  3  4  0
  3  4  4  0
  4  5  4  0
  5  6  4  0
  5  7  4  0
  7  8  4  0
  8  9  4  0
  9 10  4  0
 10 11  4  0
 11 12  4  0
 12 13  4  0
 13 14  4  0
 14 15  4  0
 15 16  1  0
 16 17  4  0
 17 18  4  0
 18 19  4  0
 19 20  4  0
 20 21  4  0
 21 22  4  0
 22 23  4  0
 23 24  4  0
 24 25  4  0
 25 26  4  0
 26 27  4  0
 27 28  4  0
 28 29  1  0
 29 30  4  0
 30 31  4  0
 31 32  4  0
 32 33  4  0
 33 34  4  0
 34 35  4  0
 35 36  4  0
 33 37  4  0
 37 38  4  0
 38 39  4  0
 39 40  4  0
 40 41  4  0
 41 42  4  0
 42 43  4  0
 43 44  4  0
 44 45  4  0
 45 46  4  0
 43 47  4  0
 47 48  4  0
 28 49  4  0
 49 50  4  0
 50 51  4  0
 51 52  4  0
 52 53  4  0
 53 54  4  0
 54 55  4  0
 55 56  4  0
 56 57  4  0
 15 58  4  0
 13 59  4  0
 59 60  4  0
 60 61  4  0
 61 62  4  0
  6  1  4  0
 12  7  4  0
 57 16  4  0
 62  3  4  0
 59  4  4  0
 58 11  4  0
 56 19  4  0
 54 21  4  0
 52 23  4  0
 50 25  4  0
 48 29  4  0
 36 31  4  0
 42 37  4  0
 47 32  4  0
 46 41  4  0
  1 63  1  0
  2 64  1  0
  6 65  1  0
  8 66  1  0
  9 67  1  0
 10 68  1  0
 14 69  1  0
 17 70  1  0
 18 71  1  0
 20 72  1  0
 22 73  1  0
 24 74  1  0
 26 75  1  0
 27 76  1  0
 30 77  1  0
 34 78  1  0
 35 79  1  0
 36 80  1  0
 38 81  1  0
 39 82  1  0
 40 83  1  0
 44 84  1  0
 45 85  1  0
 46 86  1  0
 48 87  1  0
 49 88  1  0
 51 89  1  0
 53 90  1  0
 55 91  1  0
 57 92  1  0
 58 93  1  0
 60 94  1  0
 61 95  1  0
 62 96  1  0
M  END
