
     RDKit          3D

102116  0  0  0  0  0  0  0  0999 V2000
  -12.0568   -5.8658   -4.1667 C   0  0  0  0  0  0  0  0  0  0  0  0
  -12.3677   -5.1735   -2.9955 C   0  0  0  0  0  0  0  0  0  0  0  0
  -11.4825   -4.2187   -2.4690 C   0  0  0  0  0  0  0  0  0  0  0  0
  -11.7807   -3.5138   -1.2913 C   0  0  0  0  0  0  0  0  0  0  0  0
  -10.8935   -2.5589   -0.7670 C   0  0  0  0  0  0  0  0  0  0  0  0
  -11.1838   -1.8514    0.4083 C   0  0  0  0  0  0  0  0  0  0  0  0
  -10.2834   -0.8982    0.9178 C   0  0  0  0  0  0  0  0  0  0  0  0
  -10.5462   -0.1790    2.0870 C   0  0  0  0  0  0  0  0  0  0  0  0
   -9.6254    0.7616    2.5628 C   0  0  0  0  0  0  0  0  0  0  0  0
   -9.8873    1.4816    3.7394 C   0  0  0  0  0  0  0  0  0  0  0  0
   -8.9737    2.4142    4.2110 C   0  0  0  0  0  0  0  0  0  0  0  0
   -7.7947    2.6290    3.5073 C   0  0  0  0  0  0  0  0  0  0  0  0
   -7.5097    1.9159    2.3224 C   0  0  0  0  0  0  0  0  0  0  0  0
   -6.2380    2.1968    1.6206 C   0  0  0  0  0  0  0  0  0  0  0  0
   -6.2265    2.6686    0.3012 C   0  0  0  0  0  0  0  0  0  0  0  0
   -5.0239    2.9549   -0.3515 C   0  0  0  0  0  0  0  0  0  0  0  0
   -3.7948    2.7778    0.2997 C   0  0  0  0  0  0  0  0  0  0  0  0
   -2.5773    3.0622   -0.3410 C   0  0  0  0  0  0  0  0  0  0  0  0
   -1.3463    2.8816    0.3120 C   0  0  0  0  0  0  0  0  0  0  0  0
   -0.1278    3.1659   -0.3274 C   0  0  0  0  0  0  0  0  0  0  0  0
    1.1033    2.9850    0.3252 C   0  0  0  0  0  0  0  0  0  0  0  0
    2.3211    3.2700   -0.3149 C   0  0  0  0  0  0  0  0  0  0  0  0
    3.5517    3.0885    0.3379 C   0  0  0  0  0  0  0  0  0  0  0  0
    4.7674    3.3707   -0.3009 C   0  0  0  0  0  0  0  0  0  0  0  0
    5.9836    3.1853    0.3627 C   0  0  0  0  0  0  0  0  0  0  0  0
    6.0223    2.7131    1.6814 C   0  0  0  0  0  0  0  0  0  0  0  0
    7.3067    2.5410    2.3946 C   0  0  0  0  0  0  0  0  0  0  0  0
    8.3091    1.6686    1.9190 C   0  0  0  0  0  0  0  0  0  0  0  0
    8.1331    0.9400    0.7921 N   0  0  0  0  0  0  0  0  0  0  0  0
    9.0956    0.1113    0.3554 C   0  0  0  0  0  0  0  0  0  0  0  0
    8.8849   -0.6252   -0.8017 C   0  0  0  0  0  0  0  0  0  0  0  0
    9.8498   -1.5095   -1.3157 C   0  0  0  0  0  0  0  0  0  0  0  0
    9.6184   -2.2478   -2.4884 C   0  0  0  0  0  0  0  0  0  0  0  0
   10.5840   -3.1300   -3.0001 C   0  0  0  0  0  0  0  0  0  0  0  0
   10.3535   -3.8683   -4.1724 C   0  0  0  0  0  0  0  0  0  0  0  0
   11.3229   -4.7410   -4.6683 C   0  0  0  0  0  0  0  0  0  0  0  0
   12.5341   -4.8866   -3.9993 C   0  0  0  0  0  0  0  0  0  0  0  0
   12.7782   -4.1599   -2.8330 C   0  0  0  0  0  0  0  0  0  0  0  0
   11.8126   -3.2776   -2.3213 C   0  0  0  0  0  0  0  0  0  0  0  0
   12.0427   -2.5393   -1.1488 C   0  0  0  0  0  0  0  0  0  0  0  0
   11.0748   -1.6576   -0.6390 C   0  0  0  0  0  0  0  0  0  0  0  0
   11.2966   -0.9182    0.5316 C   0  0  0  0  0  0  0  0  0  0  0  0
   10.3156   -0.0405    1.0276 C   0  0  0  0  0  0  0  0  0  0  0  0
   10.5092    0.7059    2.1932 C   0  0  0  0  0  0  0  0  0  0  0  0
    9.5093    1.5687    2.6566 C   0  0  0  0  0  0  0  0  0  0  0  0
    9.7018    2.3149    3.8302 C   0  0  0  0  0  0  0  0  0  0  0  0
    8.7102    3.1705    4.2900 C   0  0  0  0  0  0  0  0  0  0  0  0
    7.5226    3.2821    3.5769 C   0  0  0  0  0  0  0  0  0  0  0  0
    4.8000    2.4285    2.3160 C   0  0  0  0  0  0  0  0  0  0  0  0
    3.5666    2.6098    1.6631 C   0  0  0  0  0  0  0  0  0  0  0  0
    2.3481    2.3239    2.3019 C   0  0  0  0  0  0  0  0  0  0  0  0
    1.1168    2.5065    1.6496 C   0  0  0  0  0  0  0  0  0  0  0  0
   -0.1017    2.2215    2.2888 C   0  0  0  0  0  0  0  0  0  0  0  0
   -1.3331    2.4038    1.6366 C   0  0  0  0  0  0  0  0  0  0  0  0
   -2.5512    2.1189    2.2769 C   0  0  0  0  0  0  0  0  0  0  0  0
   -3.7826    2.3011    1.6256 C   0  0  0  0  0  0  0  0  0  0  0  0
   -5.0022    2.0172    2.2672 C   0  0  0  0  0  0  0  0  0  0  0  0
   -8.4330    0.9665    1.8345 C   0  0  0  0  0  0  0  0  0  0  0  0
   -8.1893    0.2632    0.7043 N   0  0  0  0  0  0  0  0  0  0  0  0
   -9.0762   -0.6395    0.2553 C   0  0  0  0  0  0  0  0  0  0  0  0
   -8.7969   -1.3455   -0.9061 C   0  0  0  0  0  0  0  0  0  0  0  0
   -9.6811   -2.3024   -1.4342 C   0  0  0  0  0  0  0  0  0  0  0  0
   -9.3813   -3.0072   -2.6119 C   0  0  0  0  0  0  0  0  0  0  0  0
  -10.2665   -3.9621   -3.1381 C   0  0  0  0  0  0  0  0  0  0  0  0
   -9.9679   -4.6671   -4.3156 C   0  0  0  0  0  0  0  0  0  0  0  0
  -10.8580   -5.6129   -4.8261 C   0  0  0  0  0  0  0  0  0  0  0  0
  -12.7512   -6.6019   -4.5628 H   0  0  0  0  0  0  0  0  0  0  0  0
  -13.3098   -5.3858   -2.4951 H   0  0  0  0  0  0  0  0  0  0  0  0
  -12.7184   -3.7126   -0.7755 H   0  0  0  0  0  0  0  0  0  0  0  0
  -12.1177   -2.0417    0.9336 H   0  0  0  0  0  0  0  0  0  0  0  0
  -11.4724   -0.3539    2.6299 H   0  0  0  0  0  0  0  0  0  0  0  0
  -10.8084    1.3190    4.2951 H   0  0  0  0  0  0  0  0  0  0  0  0
   -9.1788    2.9742    5.1196 H   0  0  0  0  0  0  0  0  0  0  0  0
   -7.0885    3.3710    3.8768 H   0  0  0  0  0  0  0  0  0  0  0  0
   -7.1642    2.8102   -0.2333 H   0  0  0  0  0  0  0  0  0  0  0  0
   -5.0595    3.3147   -1.3771 H   0  0  0  0  0  0  0  0  0  0  0  0
   -2.5893    3.4292   -1.3657 H   0  0  0  0  0  0  0  0  0  0  0  0
   -0.1378    3.5327   -1.3522 H   0  0  0  0  0  0  0  0  0  0  0  0
    2.3122    3.6384   -1.3391 H   0  0  0  0  0  0  0  0  0  0  0  0
    4.7818    3.7362   -1.3251 H   0  0  0  0  0  0  0  0  0  0  0  0
    6.9111    3.4070   -0.1622 H   0  0  0  0  0  0  0  0  0  0  0  0
    7.9327   -0.5014   -1.3144 H   0  0  0  0  0  0  0  0  0  0  0  0
    8.6703   -2.1336   -3.0115 H   0  0  0  0  0  0  0  0  0  0  0  0
    9.4129   -3.7681   -4.7097 H   0  0  0  0  0  0  0  0  0  0  0  0
   11.1307   -5.3058   -5.5766 H   0  0  0  0  0  0  0  0  0  0  0  0
   13.2903   -5.5658   -4.3839 H   0  0  0  0  0  0  0  0  0  0  0  0
   13.7313   -4.2880   -2.3249 H   0  0  0  0  0  0  0  0  0  0  0  0
   12.9905   -2.6537   -0.6259 H   0  0  0  0  0  0  0  0  0  0  0  0
   12.2396   -1.0248    1.0641 H   0  0  0  0  0  0  0  0  0  0  0  0
   11.4429    0.6129    2.7432 H   0  0  0  0  0  0  0  0  0  0  0  0
   10.6295    2.2333    4.3928 H   0  0  0  0  0  0  0  0  0  0  0  0
    8.8614    3.7510    5.1963 H   0  0  0  0  0  0  0  0  0  0  0  0
    6.7547    3.9653    3.9367 H   0  0  0  0  0  0  0  0  0  0  0  0
    4.8118    2.0480    3.3361 H   0  0  0  0  0  0  0  0  0  0  0  0
    2.3592    1.9517    3.3248 H   0  0  0  0  0  0  0  0  0  0  0  0
   -0.0927    1.8494    3.3117 H   0  0  0  0  0  0  0  0  0  0  0  0
   -2.5410    1.7475    3.3000 H   0  0  0  0  0  0  0  0  0  0  0  0
   -4.9915    1.6377    3.2876 H   0  0  0  0  0  0  0  0  0  0  0  0
   -7.8553   -1.1378   -1.4110 H   0  0  0  0  0  0  0  0  0  0  0  0
   -8.4429   -2.8091   -3.1274 H   0  0  0  0  0  0  0  0  0  0  0  0
   -9.0357   -4.4836   -4.8454 H   0  0  0  0  0  0  0  0  0  0  0  0
  -10.6137   -6.1508   -5.7382 H   0  0  0  0  0  0  0  0  0  0  0  0
  1  2  4  0
  2  3  4  0
  3  4  4  0
  4  5  4  0
  5  6  4  0
  6  7  4  0
  7  8  4  0
  8  9  4  0
  9 10  4  0
 10 11  4  0
 11 12  4  0
 12 13  4  0
 13 14  1  0
 14 15  4  0
 15 16  4  0
 16 17  4  0
 17 18  4  0
 18 19  4  0
 19 20  4  0
 20 21  4  0
 21 22  4  0
 22 23  4  0
 23 24  4  0
 24 25  4  0
 25 26  4  0
 26 27  1  0
 27 28  4  0
 28 29  4  0
 29 30  4  0
 30 31  4  0
 31 32  4  0
 32 33  4  0
 33 34  4  0
 34 35  4  0
 35 36  4  0
 36 37  4  0
 37 38  4  0
 38 39  4  0
 39 40  4  0
 40 41  4  0
 41 42  4  0
 42 43  4  0
 43 44  4  0
 44 45  4  0
 45 46  4  0
 46 47  4  0
 47 48  4  0
 26 49  4  0
 49 50  4  0
 50 51  4  0
 51 52  4  0
 52 53  4  0
 53 54  4  0
 54 55  4  0
 55 56  4  0
 56 57  4  0
 13 58  4  0
 58 59  4  0
 59 60  4  0
 60 61  4  0
 61 62  4  0
 62 63  4  0
 63 64  4  0
 64 65  4  0
 65 66  4  0
 66  1  4  0
 64  3  4  0
 62  5  4  0
 60  7  4  0
 58  9  4  0
 57 14  4  0
 56 17  4  0
 54 19  4  0
 52 21  4  0
 50 23  4  0
 48 27  4  0
 45 28  4  0
 43 30  4  0
 41 32  4  0
 39 34  4  0
  1 67  1  0
  2 68  1  0
  4 69  1  0
  6 70  1  0
  8 71  1  0
 10 72  1  0
 11 73  1  0
 12 74  1  0
 15 75  1  0
 16 76  1  0
 18 77  1  0
 20 78  1  0
 22 79  1  0
 24 80  1  0
 25 81  1  0
 31 82  1  0
 33 83  1  0
 35 84  1  0
 36 85  1  0
 37 86  1  0
 38 87  1  0
 40 88  1  0
 42 89  1  0
 44 90  1  0
 46 91  1  0
 47 92  1  0
 48 93  1  0
 49 94  1  0
 51 95  1  0
 53 96  1  0
 55 97  1  0
 57 98  1  0
 61 99  1  0
 63100  1  0
 65101  1  0
 66102  1  0
M  END
