
     RDKit          3D

102116  0  0  0  0  0  0  0  0999 V2000
   -8.9437    6.1241   -3.6589 C   0  0  0  0  0  0  0  0  0  0  0  0
   -7.7783    6.2931   -2.9204 C   0  0  0  0  0  0  0  0  0  0  0  0
   -7.2627    5.2247   -2.1803 C   0  0  0  0  0  0  0  0  0  0  0  0
   -7.8838    3.9831   -2.1580 C   0  0  0  0  0  0  0  0  0  0  0  0
   -7.3461    2.9890   -1.4305 N   0  0  0  0  0  0  0  0  0  0  0  0
   -7.9478    1.7865   -1.4114 C   0  0  0  0  0  0  0  0  0  0  0  0
   -7.3935    0.7565   -0.6623 C   0  0  0  0  0  0  0  0  0  0  0  0
   -7.9531   -0.5458   -0.5819 C   0  0  0  0  0  0  0  0  0  0  0  0
   -9.1373   -0.7816   -1.3084 C   0  0  0  0  0  0  0  0  0  0  0  0
   -9.7102    0.2490   -2.0690 C   0  0  0  0  0  0  0  0  0  0  0  0
   -9.1247    1.5235   -2.1244 C   0  0  0  0  0  0  0  0  0  0  0  0
   -9.6805    2.5630   -2.8793 C   0  0  0  0  0  0  0  0  0  0  0  0
   -9.0630    3.8177   -2.9077 C   0  0  0  0  0  0  0  0  0  0  0  0
   -9.5874    4.8886   -3.6540 C   0  0  0  0  0  0  0  0  0  0  0  0
   -9.7409   -2.0442   -1.2709 C   0  0  0  0  0  0  0  0  0  0  0  0
   -9.2002   -3.0990   -0.5266 C   0  0  0  0  0  0  0  0  0  0  0  0
   -9.8398   -4.3509   -0.5185 C   0  0  0  0  0  0  0  0  0  0  0  0
   -9.3227   -5.4184    0.2118 C   0  0  0  0  0  0  0  0  0  0  0  0
   -8.1572   -5.2469    0.9436 C   0  0  0  0  0  0  0  0  0  0  0  0
   -7.5131   -4.0075    0.9435 C   0  0  0  0  0  0  0  0  0  0  0  0
   -8.0128   -2.9002    0.2129 C   0  0  0  0  0  0  0  0  0  0  0  0
   -7.3855   -1.6132    0.1860 C   0  0  0  0  0  0  0  0  0  0  0  0
   -6.1430   -1.3844    0.9556 C   0  0  0  0  0  0  0  0  0  0  0  0
   -6.1963   -0.9624    2.2899 C   0  0  0  0  0  0  0  0  0  0  0  0
   -5.0220   -0.7442    3.0141 C   0  0  0  0  0  0  0  0  0  0  0  0
   -3.7660   -0.9413    2.4205 C   0  0  0  0  0  0  0  0  0  0  0  0
   -2.5764   -0.7238    3.1350 C   0  0  0  0  0  0  0  0  0  0  0  0
   -1.3182   -0.9185    2.5403 C   0  0  0  0  0  0  0  0  0  0  0  0
   -0.1278   -0.6998    3.2544 C   0  0  0  0  0  0  0  0  0  0  0  0
    1.1305   -0.8933    2.6598 C   0  0  0  0  0  0  0  0  0  0  0  0
    2.3212   -0.6714    3.3723 C   0  0  0  0  0  0  0  0  0  0  0  0
    3.5782   -0.8619    2.7750 C   0  0  0  0  0  0  0  0  0  0  0  0
    4.7680   -0.6324    3.4830 C   0  0  0  0  0  0  0  0  0  0  0  0
    6.0099   -0.8191    2.8717 C   0  0  0  0  0  0  0  0  0  0  0  0
    6.0920   -1.2435    1.5396 C   0  0  0  0  0  0  0  0  0  0  0  0
    7.4052   -1.4306    0.8855 C   0  0  0  0  0  0  0  0  0  0  0  0
    8.0802   -2.6891    0.9888 C   0  0  0  0  0  0  0  0  0  0  0  0
    7.5638   -3.8070    1.6915 C   0  0  0  0  0  0  0  0  0  0  0  0
    8.2553   -5.0182    1.7686 C   0  0  0  0  0  0  0  0  0  0  0  0
    9.4865   -5.1497    1.1439 C   0  0  0  0  0  0  0  0  0  0  0  0
   10.0214   -4.0709    0.4432 C   0  0  0  0  0  0  0  0  0  0  0  0
    9.3345   -2.8469    0.3581 C   0  0  0  0  0  0  0  0  0  0  0  0
    9.8933   -1.7797   -0.3553 C   0  0  0  0  0  0  0  0  0  0  0  0
    9.2426   -0.5447   -0.4682 C   0  0  0  0  0  0  0  0  0  0  0  0
    9.8340    0.4996   -1.1958 C   0  0  0  0  0  0  0  0  0  0  0  0
    9.2005    1.7459   -1.3257 C   0  0  0  0  0  0  0  0  0  0  0  0
    9.7739    2.7987   -2.0489 C   0  0  0  0  0  0  0  0  0  0  0  0
    9.1075    4.0242   -2.1534 C   0  0  0  0  0  0  0  0  0  0  0  0
    9.6490    5.1072   -2.8698 C   0  0  0  0  0  0  0  0  0  0  0  0
    8.9562    6.3131   -2.9521 C   0  0  0  0  0  0  0  0  0  0  0  0
    7.7242    6.4401   -2.3211 C   0  0  0  0  0  0  0  0  0  0  0  0
    7.1914    5.3599   -1.6107 C   0  0  0  0  0  0  0  0  0  0  0  0
    7.8607    4.1473   -1.5125 C   0  0  0  0  0  0  0  0  0  0  0  0
    7.3049    3.1398   -0.8169 N   0  0  0  0  0  0  0  0  0  0  0  0
    7.9557    1.9666   -0.7223 C   0  0  0  0  0  0  0  0  0  0  0  0
    7.3850    0.9243   -0.0034 C   0  0  0  0  0  0  0  0  0  0  0  0
    7.9913   -0.3506    0.1493 C   0  0  0  0  0  0  0  0  0  0  0  0
    4.9018   -1.4782    0.8325 C   0  0  0  0  0  0  0  0  0  0  0  0
    3.6459   -1.2889    1.4328 C   0  0  0  0  0  0  0  0  0  0  0  0
    2.4558   -1.5110    0.7216 C   0  0  0  0  0  0  0  0  0  0  0  0
    1.1993   -1.3164    1.3182 C   0  0  0  0  0  0  0  0  0  0  0  0
    0.0098   -1.5330    0.6036 C   0  0  0  0  0  0  0  0  0  0  0  0
   -1.2485   -1.3402    1.1982 C   0  0  0  0  0  0  0  0  0  0  0  0
   -2.4384   -1.5579    0.4831 C   0  0  0  0  0  0  0  0  0  0  0  0
   -3.6963   -1.3648    1.0773 C   0  0  0  0  0  0  0  0  0  0  0  0
   -4.8861   -1.5824    0.3614 C   0  0  0  0  0  0  0  0  0  0  0  0
   -9.3498    6.9505   -4.2364 H   0  0  0  0  0  0  0  0  0  0  0  0
   -7.2658    7.2515   -2.9157 H   0  0  0  0  0  0  0  0  0  0  0  0
   -6.3504    5.3632   -1.6046 H   0  0  0  0  0  0  0  0  0  0  0  0
   -6.4794    0.9909   -0.1185 H   0  0  0  0  0  0  0  0  0  0  0  0
  -10.6250    0.0603   -2.6284 H   0  0  0  0  0  0  0  0  0  0  0  0
  -10.5933    2.3956   -3.4456 H   0  0  0  0  0  0  0  0  0  0  0  0
  -10.4985    4.7635   -4.2343 H   0  0  0  0  0  0  0  0  0  0  0  0
  -10.6566   -2.2122   -1.8369 H   0  0  0  0  0  0  0  0  0  0  0  0
  -10.7546   -4.5057   -1.0872 H   0  0  0  0  0  0  0  0  0  0  0  0
   -9.8294   -6.3794    0.2070 H   0  0  0  0  0  0  0  0  0  0  0  0
   -7.7434   -6.0724    1.5165 H   0  0  0  0  0  0  0  0  0  0  0  0
   -6.6005   -3.9152    1.5299 H   0  0  0  0  0  0  0  0  0  0  0  0
   -7.1582   -0.7993    2.7719 H   0  0  0  0  0  0  0  0  0  0  0  0
   -5.0978   -0.4147    4.0480 H   0  0  0  0  0  0  0  0  0  0  0  0
   -2.6311   -0.3955    4.1714 H   0  0  0  0  0  0  0  0  0  0  0  0
   -0.1817   -0.3717    4.2909 H   0  0  0  0  0  0  0  0  0  0  0  0
    2.2702   -0.3396    4.4077 H   0  0  0  0  0  0  0  0  0  0  0  0
    4.7382   -0.2997    4.5182 H   0  0  0  0  0  0  0  0  0  0  0  0
    6.9184   -0.6270    3.4392 H   0  0  0  0  0  0  0  0  0  0  0  0
    6.5999   -3.7452    2.1937 H   0  0  0  0  0  0  0  0  0  0  0  0
    7.8267   -5.8532    2.3165 H   0  0  0  0  0  0  0  0  0  0  0  0
   10.0305   -6.0886    1.1991 H   0  0  0  0  0  0  0  0  0  0  0  0
   10.9877   -4.1947   -0.0416 H   0  0  0  0  0  0  0  0  0  0  0  0
   10.8608   -1.9159   -0.8373 H   0  0  0  0  0  0  0  0  0  0  0  0
   10.8013    0.3438   -1.6707 H   0  0  0  0  0  0  0  0  0  0  0  0
   10.7392    2.6644   -2.5307 H   0  0  0  0  0  0  0  0  0  0  0  0
   10.6122    5.0147   -3.3659 H   0  0  0  0  0  0  0  0  0  0  0  0
    9.3760    7.1491   -3.5057 H   0  0  0  0  0  0  0  0  0  0  0  0
    7.1729    7.3751   -2.3771 H   0  0  0  0  0  0  0  0  0  0  0  0
    6.2270    5.4663   -1.1192 H   0  0  0  0  0  0  0  0  0  0  0  0
    6.4183    1.1262    0.4561 H   0  0  0  0  0  0  0  0  0  0  0  0
    4.9619   -1.8057   -0.2045 H   0  0  0  0  0  0  0  0  0  0  0  0
    2.5099   -1.8368   -0.3158 H   0  0  0  0  0  0  0  0  0  0  0  0
    0.0648   -1.8558   -0.4347 H   0  0  0  0  0  0  0  0  0  0  0  0
   -2.3854   -1.8810   -0.5552 H   0  0  0  0  0  0  0  0  0  0  0  0
   -4.8409   -1.9073   -0.6772 H   0  0  0  0  0  0  0  0  0  0  0  0
  1  2  4  0
  2  3  4  0
  3  4  4  0
  4  5  4  0
  5  6  4  0
  6  7  4  0
  7  8  4  0
  8  9  4  0
  9 10  4  0
 10 11  4  0
 11 12  4  0
 12 13  4  0
 13 14  4  0
  9 15  4  0
 15 16  4  0
 16 17  4  0
 17 18  4  0
 18 19  4  0
 19 20  4  0
 20 21  4  0
 21 22  4  0
 22 23  1  0
 23 24  4  0
 24 25  4  0
 25 26  4  0
 26 27  4  0
 27 28  4  0
 28 29  4  0
 29 30  4  0
 30 31  4  0
 31 32  4  0
 32 33  4  0
 33 34  4  0
 34 35  4  0
 35 36  1  0
 36 37  4  0
 37 38  4  0
 38 39  4  0
 39 40  4  0
 40 41  4  0
 41 42  4  0
 42 43  4  0
 43 44  4  0
 44 45  4  0
 45 46  4  0
 46 47  4  0
 47 48  4  0
 48 49  4  0
 49 50  4  0
 50 51  4  0
 51 52  4  0
 52 53  4  0
 53 54  4  0
 54 55  4  0
 55 56  4  0
 56 57  4  0
 35 58  4  0
 58 59  4  0
 59 60  4  0
 60 61  4  0
 61 62  4  0
 62 63  4  0
 63 64  4  0
 64 65  4  0
 65 66  4  0
 14  1  4  0
 21 16  4  0
 66 23  4  0
 13  4  4  0
 65 26  4  0
 11  6  4  0
 63 28  4  0
 22  8  4  0
 61 30  4  0
 59 32  4  0
 57 36  4  0
 42 37  4  0
 57 44  4  0
 55 46  4  0
 53 48  4  0
  1 67  1  0
  2 68  1  0
  3 69  1  0
  7 70  1  0
 10 71  1  0
 12 72  1  0
 14 73  1  0
 15 74  1  0
 17 75  1  0
 18 76  1  0
 19 77  1  0
 20 78  1  0
 24 79  1  0
 25 80  1  0
 27 81  1  0
 29 82  1  0
 31 83  1  0
 33 84  1  0
 34 85  1  0
 38 86  1  0
 39 87  1  0
 40 88  1  0
 41 89  1  0
 43 90  1  0
 45 91  1  0
 47 92  1  0
 49 93  1  0
 50 94  1  0
 51 95  1  0
 52 96  1  0
 56 97  1  0
 58 98  1  0
 60 99  1  0
 62100  1  0
 64101  1  0
 66102  1  0
M  END
