
     RDKit          3D

102116  0  0  0  0  0  0  0  0999 V2000
   18.3277   -0.8725    4.0793 C   0  0  0  0  0  0  0  0  0  0  0  0
   18.4772   -2.1126    3.4695 C   0  0  0  0  0  0  0  0  0  0  0  0
   17.4614   -2.6109    2.6479 C   0  0  0  0  0  0  0  0  0  0  0  0
   16.2917   -1.8990    2.4171 C   0  0  0  0  0  0  0  0  0  0  0  0
   15.3456   -2.4233    1.6183 N   0  0  0  0  0  0  0  0  0  0  0  0
   14.2142   -1.7313    1.3972 C   0  0  0  0  0  0  0  0  0  0  0  0
   13.2378   -2.2731    0.5730 C   0  0  0  0  0  0  0  0  0  0  0  0
   12.0308   -1.6061    0.2974 C   0  0  0  0  0  0  0  0  0  0  0  0
   11.0541   -2.1716   -0.5390 C   0  0  0  0  0  0  0  0  0  0  0  0
    9.8494   -1.5033   -0.8123 C   0  0  0  0  0  0  0  0  0  0  0  0
    8.8733   -2.0676   -1.6453 C   0  0  0  0  0  0  0  0  0  0  0  0
    7.6788   -1.3904   -1.9071 C   0  0  0  0  0  0  0  0  0  0  0  0
    7.4256   -0.1310   -1.3470 C   0  0  0  0  0  0  0  0  0  0  0  0
    6.1688    0.5821   -1.6245 C   0  0  0  0  0  0  0  0  0  0  0  0
    6.1765    1.8793   -2.1545 C   0  0  0  0  0  0  0  0  0  0  0  0
    4.9817    2.5543   -2.4220 C   0  0  0  0  0  0  0  0  0  0  0  0
    3.7430    1.9493   -2.1651 C   0  0  0  0  0  0  0  0  0  0  0  0
    2.5332    2.6129   -2.4291 C   0  0  0  0  0  0  0  0  0  0  0  0
    1.2928    2.0051   -2.1711 C   0  0  0  0  0  0  0  0  0  0  0  0
    0.0824    2.6676   -2.4361 C   0  0  0  0  0  0  0  0  0  0  0  0
   -1.1583    2.0601   -2.1792 C   0  0  0  0  0  0  0  0  0  0  0  0
   -2.3684    2.7226   -2.4452 C   0  0  0  0  0  0  0  0  0  0  0  0
   -3.6082    2.1139   -2.1890 C   0  0  0  0  0  0  0  0  0  0  0  0
   -4.8166    2.7737   -2.4543 C   0  0  0  0  0  0  0  0  0  0  0  0
   -6.0420    2.1530   -2.1945 C   0  0  0  0  0  0  0  0  0  0  0  0
   -6.0965    0.8573   -1.6633 C   0  0  0  0  0  0  0  0  0  0  0  0
   -7.3873    0.2045   -1.3926 C   0  0  0  0  0  0  0  0  0  0  0  0
   -8.3577    0.8268   -0.5887 C   0  0  0  0  0  0  0  0  0  0  0  0
   -9.5998    0.2216   -0.3253 C   0  0  0  0  0  0  0  0  0  0  0  0
  -10.5656    0.8503    0.4781 C   0  0  0  0  0  0  0  0  0  0  0  0
  -11.8073    0.2463    0.7369 C   0  0  0  0  0  0  0  0  0  0  0  0
  -12.7766    0.8700    1.5356 C   0  0  0  0  0  0  0  0  0  0  0  0
  -14.0154    0.2519    1.7828 C   0  0  0  0  0  0  0  0  0  0  0  0
  -14.9977    0.8557    2.5760 C   0  0  0  0  0  0  0  0  0  0  0  0
  -16.2182    0.2085    2.7978 C   0  0  0  0  0  0  0  0  0  0  0  0
  -17.2309    0.7816    3.5886 C   0  0  0  0  0  0  0  0  0  0  0  0
  -18.4342    0.1082    3.7878 C   0  0  0  0  0  0  0  0  0  0  0  0
  -18.6289   -1.1360    3.1996 C   0  0  0  0  0  0  0  0  0  0  0  0
  -17.6184   -1.7002    2.4148 C   0  0  0  0  0  0  0  0  0  0  0  0
  -16.4098   -1.0510    2.1998 C   0  0  0  0  0  0  0  0  0  0  0  0
  -15.4714   -1.6382    1.4364 N   0  0  0  0  0  0  0  0  0  0  0  0
  -14.3023   -1.0078    1.2300 C   0  0  0  0  0  0  0  0  0  0  0  0
  -13.3350   -1.6156    0.4421 C   0  0  0  0  0  0  0  0  0  0  0  0
  -12.0904   -1.0154    0.1820 C   0  0  0  0  0  0  0  0  0  0  0  0
  -11.1240   -1.6463   -0.6193 C   0  0  0  0  0  0  0  0  0  0  0  0
   -9.8826   -1.0429   -0.8794 C   0  0  0  0  0  0  0  0  0  0  0  0
   -8.9171   -1.6698   -1.6798 C   0  0  0  0  0  0  0  0  0  0  0  0
   -7.6878   -1.0537   -1.9319 C   0  0  0  0  0  0  0  0  0  0  0  0
   -4.8824    0.2010   -1.3988 C   0  0  0  0  0  0  0  0  0  0  0  0
   -3.6403    0.8108   -1.6540 C   0  0  0  0  0  0  0  0  0  0  0  0
   -2.4298    0.1498   -1.3867 C   0  0  0  0  0  0  0  0  0  0  0  0
   -1.1893    0.7581   -1.6433 C   0  0  0  0  0  0  0  0  0  0  0  0
    0.0211    0.0958   -1.3777 C   0  0  0  0  0  0  0  0  0  0  0  0
    1.2618    0.7030   -1.6354 C   0  0  0  0  0  0  0  0  0  0  0  0
    2.4722    0.0398   -1.3711 C   0  0  0  0  0  0  0  0  0  0  0  0
    3.7129    0.6460   -1.6305 C   0  0  0  0  0  0  0  0  0  0  0  0
    4.9246   -0.0190   -1.3680 C   0  0  0  0  0  0  0  0  0  0  0  0
    8.4076    0.4304   -0.5130 C   0  0  0  0  0  0  0  0  0  0  0  0
    9.6145   -0.2382   -0.2373 C   0  0  0  0  0  0  0  0  0  0  0  0
   10.5915    0.3261    0.5998 C   0  0  0  0  0  0  0  0  0  0  0  0
   11.7961   -0.3438    0.8731 C   0  0  0  0  0  0  0  0  0  0  0  0
   12.7752    0.2138    1.7076 C   0  0  0  0  0  0  0  0  0  0  0  0
   13.9754   -0.4706    1.9702 C   0  0  0  0  0  0  0  0  0  0  0  0
   14.9653    0.0674    2.8000 C   0  0  0  0  0  0  0  0  0  0  0  0
   16.1462   -0.6439    3.0372 C   0  0  0  0  0  0  0  0  0  0  0  0
   17.1642   -0.1371    3.8648 C   0  0  0  0  0  0  0  0  0  0  0  0
   19.1133   -0.4794    4.7191 H   0  0  0  0  0  0  0  0  0  0  0  0
   19.3800   -2.6965    3.6286 H   0  0  0  0  0  0  0  0  0  0  0  0
   17.5852   -3.5820    2.1741 H   0  0  0  0  0  0  0  0  0  0  0  0
   13.4306   -3.2498    0.1336 H   0  0  0  0  0  0  0  0  0  0  0  0
   11.2350   -3.1487   -0.9842 H   0  0  0  0  0  0  0  0  0  0  0  0
    9.0350   -3.0417   -2.1017 H   0  0  0  0  0  0  0  0  0  0  0  0
    6.9468   -1.8524   -2.5670 H   0  0  0  0  0  0  0  0  0  0  0  0
    7.1203    2.3732   -2.3776 H   0  0  0  0  0  0  0  0  0  0  0  0
    5.0290    3.5584   -2.8376 H   0  0  0  0  0  0  0  0  0  0  0  0
    2.5579    3.6195   -2.8427 H   0  0  0  0  0  0  0  0  0  0  0  0
    0.1063    3.6742   -2.8502 H   0  0  0  0  0  0  0  0  0  0  0  0
   -2.3453    3.7292   -2.8591 H   0  0  0  0  0  0  0  0  0  0  0  0
   -4.8162    3.7789   -2.8699 H   0  0  0  0  0  0  0  0  0  0  0  0
   -6.9611    2.6889   -2.4243 H   0  0  0  0  0  0  0  0  0  0  0  0
   -8.1365    1.7994   -0.1513 H   0  0  0  0  0  0  0  0  0  0  0  0
  -10.3468    1.8265    0.9076 H   0  0  0  0  0  0  0  0  0  0  0  0
  -12.5679    1.8459    1.9698 H   0  0  0  0  0  0  0  0  0  0  0  0
  -14.8136    1.8302    3.0217 H   0  0  0  0  0  0  0  0  0  0  0  0
  -17.0855    1.7547    4.0518 H   0  0  0  0  0  0  0  0  0  0  0  0
  -19.2154    0.5526    4.3990 H   0  0  0  0  0  0  0  0  0  0  0  0
  -19.5629   -1.6721    3.3469 H   0  0  0  0  0  0  0  0  0  0  0  0
  -17.7770   -2.6740    1.9573 H   0  0  0  0  0  0  0  0  0  0  0  0
  -13.5661   -2.5912    0.0185 H   0  0  0  0  0  0  0  0  0  0  0  0
  -11.3427   -2.6229   -1.0483 H   0  0  0  0  0  0  0  0  0  0  0  0
   -9.1143   -2.6448   -2.1201 H   0  0  0  0  0  0  0  0  0  0  0  0
   -6.9668   -1.5623   -2.5692 H   0  0  0  0  0  0  0  0  0  0  0  0
   -4.9049   -0.8020   -0.9749 H   0  0  0  0  0  0  0  0  0  0  0  0
   -2.4541   -0.8565   -0.9720 H   0  0  0  0  0  0  0  0  0  0  0  0
   -0.0033   -0.9107   -0.9634 H   0  0  0  0  0  0  0  0  0  0  0  0
    2.4492   -0.9667   -0.9567 H   0  0  0  0  0  0  0  0  0  0  0  0
    4.9003   -1.0224   -0.9451 H   0  0  0  0  0  0  0  0  0  0  0  0
    8.2216    1.4032   -0.0599 H   0  0  0  0  0  0  0  0  0  0  0  0
   10.4104    1.3025    1.0458 H   0  0  0  0  0  0  0  0  0  0  0  0
   12.6047    1.1894    2.1588 H   0  0  0  0  0  0  0  0  0  0  0  0
   14.8171    1.0404    3.2619 H   0  0  0  0  0  0  0  0  0  0  0  0
   17.0536    0.8323    4.3450 H   0  0  0  0  0  0  0  0  0  0  0  0
  1  2  4  0
  2  3  4  0
  3  4  4  0
  4  5  4  0
  5  6  4  0
  6  7  4  0
  7  8  4  0
  8  9  4  0
  9 10  4  0
 10 11  4  0
 11 12  4  0
 12 13  4  0
 13 14  1  0
 14 15  4  0
 15 16  4  0
 16 17  4  0
 17 18  4  0
 18 19  4  0
 19 20  4  0
 20 21  4  0
 21 22  4  0
 22 23  4  0
 23 24  4  0
 24 25  4  0
 25 26  4  0
 26 27  1  0
 27 28  4  0
 28 29  4  0
 29 30  4  0
 30 31  4  0
 31 32  4  0
 32 33  4  0
 33 34  4  0
 34 35  4  0
 35 36  4  0
 36 37  4  0
 37 38  4  0
 38 39  4  0
 39 40  4  0
 40 41  4  0
 41 42  4  0
 42 43  4  0
 43 44  4  0
 44 45  4  0
 45 46  4  0
 46 47  4  0
 47 48  4  0
 26 49  4  0
 49 50  4  0
 50 51  4  0
 51 52  4  0
 52 53  4  0
 53 54  4  0
 54 55  4  0
 55 56  4  0
 56 57  4  0
 13 58  4  0
 58 59  4  0
 59 60  4  0
 60 61  4  0
 61 62  4  0
 62 63  4  0
 63 64  4  0
 64 65  4  0
 65 66  4  0
 66  1  4  0
 65  4  4  0
 63  6  4  0
 61  8  4  0
 59 10  4  0
 57 14  4  0
 56 17  4  0
 54 19  4  0
 52 21  4  0
 50 23  4  0
 48 27  4  0
 46 29  4  0
 44 31  4  0
 42 33  4  0
 40 35  4  0
  1 67  1  0
  2 68  1  0
  3 69  1  0
  7 70  1  0
  9 71  1  0
 11 72  1  0
 12 73  1  0
 15 74  1  0
 16 75  1  0
 18 76  1  0
 20 77  1  0
 22 78  1  0
 24 79  1  0
 25 80  1  0
 28 81  1  0
 30 82  1  0
 32 83  1  0
 34 84  1  0
 36 85  1  0
 37 86  1  0
 38 87  1  0
 39 88  1  0
 43 89  1  0
 45 90  1  0
 47 91  1  0
 48 92  1  0
 49 93  1  0
 51 94  1  0
 53 95  1  0
 55 96  1  0
 57 97  1  0
 58 98  1  0
 60 99  1  0
 62100  1  0
 64101  1  0
 66102  1  0
M  END
