
     RDKit          3D

102116  0  0  0  0  0  0  0  0999 V2000
  -10.8402    2.1148    4.5707 C   0  0  0  0  0  0  0  0  0  0  0  0
  -11.9053    1.2268    4.4752 C   0  0  0  0  0  0  0  0  0  0  0  0
  -11.9196    0.2639    3.4613 C   0  0  0  0  0  0  0  0  0  0  0  0
  -10.8912    0.1628    2.5335 C   0  0  0  0  0  0  0  0  0  0  0  0
  -10.9536   -0.7812    1.5777 N   0  0  0  0  0  0  0  0  0  0  0  0
   -9.9550   -0.8759    0.6818 C   0  0  0  0  0  0  0  0  0  0  0  0
  -10.0144   -1.8472   -0.3052 C   0  0  0  0  0  0  0  0  0  0  0  0
   -9.0071   -2.0077   -1.2755 C   0  0  0  0  0  0  0  0  0  0  0  0
   -9.1244   -3.0089   -2.2476 C   0  0  0  0  0  0  0  0  0  0  0  0
   -8.1460   -3.2053   -3.2296 C   0  0  0  0  0  0  0  0  0  0  0  0
   -8.3059   -4.2238   -4.1856 C   0  0  0  0  0  0  0  0  0  0  0  0
   -7.3474   -4.4421   -5.1725 C   0  0  0  0  0  0  0  0  0  0  0  0
   -6.2144   -3.6435   -5.2157 C   0  0  0  0  0  0  0  0  0  0  0  0
   -6.0443   -2.6284   -4.2715 C   0  0  0  0  0  0  0  0  0  0  0  0
   -7.0005   -2.3785   -3.2548 C   0  0  0  0  0  0  0  0  0  0  0  0
   -6.8664   -1.3493   -2.2686 C   0  0  0  0  0  0  0  0  0  0  0  0
   -5.6743   -0.4739   -2.2760 C   0  0  0  0  0  0  0  0  0  0  0  0
   -5.6607    0.7096   -3.0245 C   0  0  0  0  0  0  0  0  0  0  0  0
   -4.5333    1.5342   -3.0295 C   0  0  0  0  0  0  0  0  0  0  0  0
   -3.3928    1.1952   -2.2852 C   0  0  0  0  0  0  0  0  0  0  0  0
   -2.2509    2.0132   -2.2805 C   0  0  0  0  0  0  0  0  0  0  0  0
   -1.1095    1.6746   -1.5341 C   0  0  0  0  0  0  0  0  0  0  0  0
    0.0329    2.4930   -1.5283 C   0  0  0  0  0  0  0  0  0  0  0  0
    1.1744    2.1542   -0.7821 C   0  0  0  0  0  0  0  0  0  0  0  0
    2.3174    2.9715   -0.7781 C   0  0  0  0  0  0  0  0  0  0  0  0
    3.4588    2.6306   -0.0344 C   0  0  0  0  0  0  0  0  0  0  0  0
    4.6029    3.4430   -0.0359 C   0  0  0  0  0  0  0  0  0  0  0  0
    5.7332    3.0857    0.7027 C   0  0  0  0  0  0  0  0  0  0  0  0
    5.7441    1.9104    1.4642 C   0  0  0  0  0  0  0  0  0  0  0  0
    6.9457    1.5188    2.2320 C   0  0  0  0  0  0  0  0  0  0  0  0
    7.1436    2.0226    3.5568 C   0  0  0  0  0  0  0  0  0  0  0  0
    6.2395    2.8951    4.2130 C   0  0  0  0  0  0  0  0  0  0  0  0
    6.4720    3.3653    5.5075 C   0  0  0  0  0  0  0  0  0  0  0  0
    7.6165    2.9763    6.1873 C   0  0  0  0  0  0  0  0  0  0  0  0
    8.5239    2.1171    5.5720 C   0  0  0  0  0  0  0  0  0  0  0  0
    8.3007    1.6365    4.2699 C   0  0  0  0  0  0  0  0  0  0  0  0
    9.2268    0.7699    3.6771 C   0  0  0  0  0  0  0  0  0  0  0  0
    9.0443    0.2641    2.3842 C   0  0  0  0  0  0  0  0  0  0  0  0
    9.9977   -0.6098    1.8286 C   0  0  0  0  0  0  0  0  0  0  0  0
    9.8704   -1.1447    0.5563 C   0  0  0  0  0  0  0  0  0  0  0  0
   10.8180   -1.9773    0.0911 N   0  0  0  0  0  0  0  0  0  0  0  0
   10.6879   -2.4951   -1.1430 C   0  0  0  0  0  0  0  0  0  0  0  0
   11.6634   -3.3565   -1.6272 C   0  0  0  0  0  0  0  0  0  0  0  0
   11.5784   -3.9237   -2.9025 C   0  0  0  0  0  0  0  0  0  0  0  0
   10.4943   -3.6274   -3.7205 C   0  0  0  0  0  0  0  0  0  0  0  0
    9.5012   -2.7659   -3.2599 C   0  0  0  0  0  0  0  0  0  0  0  0
    9.5928   -2.1987   -1.9759 C   0  0  0  0  0  0  0  0  0  0  0  0
    8.6153   -1.3304   -1.4796 C   0  0  0  0  0  0  0  0  0  0  0  0
    8.7435   -0.7883   -0.1955 C   0  0  0  0  0  0  0  0  0  0  0  0
    7.7825    0.0869    0.3429 C   0  0  0  0  0  0  0  0  0  0  0  0
    7.9040    0.6319    1.6435 C   0  0  0  0  0  0  0  0  0  0  0  0
    4.5969    1.1007    1.4716 C   0  0  0  0  0  0  0  0  0  0  0  0
    3.4558    1.4443    0.7279 C   0  0  0  0  0  0  0  0  0  0  0  0
    2.3133    0.6279    0.7241 C   0  0  0  0  0  0  0  0  0  0  0  0
    1.1730    0.9680   -0.0226 C   0  0  0  0  0  0  0  0  0  0  0  0
    0.0314    0.1494   -0.0290 C   0  0  0  0  0  0  0  0  0  0  0  0
   -1.1100    0.4882   -0.7750 C   0  0  0  0  0  0  0  0  0  0  0  0
   -2.2515   -0.3311   -0.7801 C   0  0  0  0  0  0  0  0  0  0  0  0
   -3.3927    0.0071   -1.5256 C   0  0  0  0  0  0  0  0  0  0  0  0
   -4.5335   -0.8135   -1.5307 C   0  0  0  0  0  0  0  0  0  0  0  0
   -7.8788   -1.1640   -1.2722 C   0  0  0  0  0  0  0  0  0  0  0  0
   -7.8248   -0.1729   -0.2630 C   0  0  0  0  0  0  0  0  0  0  0  0
   -8.8414   -0.0265    0.6997 C   0  0  0  0  0  0  0  0  0  0  0  0
   -8.7840    0.9543    1.6969 C   0  0  0  0  0  0  0  0  0  0  0  0
   -9.8155    1.0642    2.6354 C   0  0  0  0  0  0  0  0  0  0  0  0
   -9.7952    2.0356    3.6529 C   0  0  0  0  0  0  0  0  0  0  0  0
  -10.8227    2.8656    5.3564 H   0  0  0  0  0  0  0  0  0  0  0  0
  -12.7268    1.2775    5.1851 H   0  0  0  0  0  0  0  0  0  0  0  0
  -12.7560   -0.4278    3.3922 H   0  0  0  0  0  0  0  0  0  0  0  0
  -10.8839   -2.5024   -0.3118 H   0  0  0  0  0  0  0  0  0  0  0  0
  -10.0025   -3.6543   -2.2392 H   0  0  0  0  0  0  0  0  0  0  0  0
   -9.1877   -4.8614   -4.1680 H   0  0  0  0  0  0  0  0  0  0  0  0
   -7.4869   -5.2336   -5.9037 H   0  0  0  0  0  0  0  0  0  0  0  0
   -5.4599   -3.8051   -5.9811 H   0  0  0  0  0  0  0  0  0  0  0  0
   -5.1410   -2.0250   -4.3405 H   0  0  0  0  0  0  0  0  0  0  0  0
   -6.5324    0.9934   -3.6111 H   0  0  0  0  0  0  0  0  0  0  0  0
   -4.5537    2.4459   -3.6227 H   0  0  0  0  0  0  0  0  0  0  0  0
   -2.2510    2.9293   -2.8686 H   0  0  0  0  0  0  0  0  0  0  0  0
    0.0340    3.4098   -2.1155 H   0  0  0  0  0  0  0  0  0  0  0  0
    2.3201    3.8879   -1.3657 H   0  0  0  0  0  0  0  0  0  0  0  0
    4.6259    4.3623   -0.6173 H   0  0  0  0  0  0  0  0  0  0  0  0
    6.6107    3.7292    0.6810 H   0  0  0  0  0  0  0  0  0  0  0  0
    5.3280    3.2219    3.7155 H   0  0  0  0  0  0  0  0  0  0  0  0
    5.7558    4.0335    5.9783 H   0  0  0  0  0  0  0  0  0  0  0  0
    7.8046    3.3378    7.1945 H   0  0  0  0  0  0  0  0  0  0  0  0
    9.4150    1.8218    6.1226 H   0  0  0  0  0  0  0  0  0  0  0  0
   10.1140    0.4788    4.2390 H   0  0  0  0  0  0  0  0  0  0  0  0
   10.8771   -0.8917    2.4053 H   0  0  0  0  0  0  0  0  0  0  0  0
   12.5143   -3.5928   -0.9926 H   0  0  0  0  0  0  0  0  0  0  0  0
   12.3600   -4.5945   -3.2498 H   0  0  0  0  0  0  0  0  0  0  0  0
   10.4220   -4.0652   -4.7127 H   0  0  0  0  0  0  0  0  0  0  0  0
    8.6557   -2.5387   -3.9051 H   0  0  0  0  0  0  0  0  0  0  0  0
    7.7527   -1.0771   -2.0916 H   0  0  0  0  0  0  0  0  0  0  0  0
    6.9210    0.3438   -0.2717 H   0  0  0  0  0  0  0  0  0  0  0  0
    4.6033    0.1853    2.0620 H   0  0  0  0  0  0  0  0  0  0  0  0
    2.3137   -0.2893    1.3109 H   0  0  0  0  0  0  0  0  0  0  0  0
    0.0310   -0.7684    0.5567 H   0  0  0  0  0  0  0  0  0  0  0  0
   -2.2519   -1.2486   -0.1938 H   0  0  0  0  0  0  0  0  0  0  0  0
   -4.5409   -1.7338   -0.9481 H   0  0  0  0  0  0  0  0  0  0  0  0
   -6.9738    0.5052   -0.2185 H   0  0  0  0  0  0  0  0  0  0  0  0
   -7.9348    1.6320    1.7426 H   0  0  0  0  0  0  0  0  0  0  0  0
   -8.9646    2.7329    3.7332 H   0  0  0  0  0  0  0  0  0  0  0  0
  1  2  4  0
  2  3  4  0
  3  4  4  0
  4  5  4  0
  5  6  4  0
  6  7  4  0
  7  8  4  0
  8  9  4  0
  9 10  4  0
 10 11  4  0
 11 12  4  0
 12 13  4  0
 13 14  4  0
 14 15  4  0
 15 16  4  0
 16 17  1  0
 17 18  4  0
 18 19  4  0
 19 20  4  0
 20 21  4  0
 21 22  4  0
 22 23  4  0
 23 24  4  0
 24 25  4  0
 25 26  4  0
 26 27  4  0
 27 28  4  0
 28 29  4  0
 29 30  1  0
 30 31  4  0
 31 32  4  0
 32 33  4  0
 33 34  4  0
 34 35  4  0
 35 36  4  0
 36 37  4  0
 37 38  4  0
 38 39  4  0
 39 40  4  0
 40 41  4  0
 41 42  4  0
 42 43  4  0
 43 44  4  0
 44 45  4  0
 45 46  4  0
 46 47  4  0
 47 48  4  0
 48 49  4  0
 49 50  4  0
 50 51  4  0
 29 52  4  0
 52 53  4  0
 53 54  4  0
 54 55  4  0
 55 56  4  0
 56 57  4  0
 57 58  4  0
 58 59  4  0
 59 60  4  0
 16 61  4  0
 61 62  4  0
 62 63  4  0
 63 64  4  0
 64 65  4  0
 65 66  4  0
 66  1  4  0
 65  4  4  0
 63  6  4  0
 61  8  4  0
 15 10  4  0
 60 17  4  0
 59 20  4  0
 57 22  4  0
 55 24  4  0
 53 26  4  0
 51 30  4  0
 36 31  4  0
 51 38  4  0
 49 40  4  0
 47 42  4  0
  1 67  1  0
  2 68  1  0
  3 69  1  0
  7 70  1  0
  9 71  1  0
 11 72  1  0
 12 73  1  0
 13 74  1  0
 14 75  1  0
 18 76  1  0
 19 77  1  0
 21 78  1  0
 23 79  1  0
 25 80  1  0
 27 81  1  0
 28 82  1  0
 32 83  1  0
 33 84  1  0
 34 85  1  0
 35 86  1  0
 37 87  1  0
 39 88  1  0
 43 89  1  0
 44 90  1  0
 45 91  1  0
 46 92  1  0
 48 93  1  0
 50 94  1  0
 52 95  1  0
 54 96  1  0
 56 97  1  0
 58 98  1  0
 60 99  1  0
 62100  1  0
 64101  1  0
 66102  1  0
M  END
