
     RDKit          3D

102116  0  0  0  0  0  0  0  0999 V2000
    9.3687    3.8027    2.3670 C   0  0  0  0  0  0  0  0  0  0  0  0
   10.5608    3.1820    2.7212 C   0  0  0  0  0  0  0  0  0  0  0  0
   10.8281    1.8846    2.2739 C   0  0  0  0  0  0  0  0  0  0  0  0
    9.9299    1.1865    1.4766 C   0  0  0  0  0  0  0  0  0  0  0  0
   10.2308   -0.0576    1.0714 N   0  0  0  0  0  0  0  0  0  0  0  0
    9.3620   -0.7327    0.2988 C   0  0  0  0  0  0  0  0  0  0  0  0
    9.7152   -2.0105   -0.0952 C   0  0  0  0  0  0  0  0  0  0  0  0
    8.8945   -2.8108   -0.9008 C   0  0  0  0  0  0  0  0  0  0  0  0
    9.3133   -4.1023   -1.2678 C   0  0  0  0  0  0  0  0  0  0  0  0
    8.5210   -4.9330   -2.0733 C   0  0  0  0  0  0  0  0  0  0  0  0
    8.9407   -6.2228   -2.4409 C   0  0  0  0  0  0  0  0  0  0  0  0
    8.1365   -7.0332   -3.2435 C   0  0  0  0  0  0  0  0  0  0  0  0
    6.9042   -6.5644   -3.6878 C   0  0  0  0  0  0  0  0  0  0  0  0
    6.4756   -5.2852   -3.3298 C   0  0  0  0  0  0  0  0  0  0  0  0
    7.2753   -4.4585   -2.5228 C   0  0  0  0  0  0  0  0  0  0  0  0
    6.8615   -3.1667   -2.1532 C   0  0  0  0  0  0  0  0  0  0  0  0
    7.6516   -2.3145   -1.3404 C   0  0  0  0  0  0  0  0  0  0  0  0
    7.2624   -0.9965   -0.9483 C   0  0  0  0  0  0  0  0  0  0  0  0
    5.9675   -0.4422   -1.3972 C   0  0  0  0  0  0  0  0  0  0  0  0
    5.8769    0.2789   -2.5944 C   0  0  0  0  0  0  0  0  0  0  0  0
    4.6532    0.8022   -3.0183 C   0  0  0  0  0  0  0  0  0  0  0  0
    3.4904    0.6170   -2.2552 C   0  0  0  0  0  0  0  0  0  0  0  0
    2.2530    1.1380   -2.6683 C   0  0  0  0  0  0  0  0  0  0  0  0
    1.0877    0.9517   -1.9053 C   0  0  0  0  0  0  0  0  0  0  0  0
   -0.1505    1.4733   -2.3174 C   0  0  0  0  0  0  0  0  0  0  0  0
   -1.3160    1.2867   -1.5547 C   0  0  0  0  0  0  0  0  0  0  0  0
   -2.5540    1.8093   -1.9659 C   0  0  0  0  0  0  0  0  0  0  0  0
   -3.7186    1.6209   -1.2031 C   0  0  0  0  0  0  0  0  0  0  0  0
   -4.9541    2.1447   -1.6131 C   0  0  0  0  0  0  0  0  0  0  0  0
   -6.1040    1.9475   -0.8452 C   0  0  0  0  0  0  0  0  0  0  0  0
   -6.0467    1.2211    0.3508 C   0  0  0  0  0  0  0  0  0  0  0  0
   -7.2642    1.0091    1.1623 C   0  0  0  0  0  0  0  0  0  0  0  0
   -7.6097    1.9380    2.1918 C   0  0  0  0  0  0  0  0  0  0  0  0
   -6.8459    3.0894    2.5113 C   0  0  0  0  0  0  0  0  0  0  0  0
   -7.2148    3.9838    3.5314 C   0  0  0  0  0  0  0  0  0  0  0  0
   -6.4424    5.1186    3.8315 C   0  0  0  0  0  0  0  0  0  0  0  0
   -6.8254    5.9950    4.8478 C   0  0  0  0  0  0  0  0  0  0  0  0
   -7.9846    5.7484    5.5766 C   0  0  0  0  0  0  0  0  0  0  0  0
   -8.7613    4.6251    5.2892 C   0  0  0  0  0  0  0  0  0  0  0  0
   -8.3867    3.7350    4.2687 C   0  0  0  0  0  0  0  0  0  0  0  0
   -9.1529    2.6008    3.9642 C   0  0  0  0  0  0  0  0  0  0  0  0
   -8.7792    1.7090    2.9432 C   0  0  0  0  0  0  0  0  0  0  0  0
   -9.5720    0.5869    2.6688 C   0  0  0  0  0  0  0  0  0  0  0  0
   -9.2599   -0.3269    1.6789 C   0  0  0  0  0  0  0  0  0  0  0  0
  -10.0958   -1.3654    1.5053 N   0  0  0  0  0  0  0  0  0  0  0  0
   -9.8322   -2.2771    0.5558 C   0  0  0  0  0  0  0  0  0  0  0  0
  -10.6963   -3.3496    0.3748 C   0  0  0  0  0  0  0  0  0  0  0  0
  -10.4649   -4.3248   -0.6001 C   0  0  0  0  0  0  0  0  0  0  0  0
   -9.3446   -4.2324   -1.4173 C   0  0  0  0  0  0  0  0  0  0  0  0
   -8.4629   -3.1660   -1.2551 C   0  0  0  0  0  0  0  0  0  0  0  0
   -8.7031   -2.1883   -0.2720 C   0  0  0  0  0  0  0  0  0  0  0  0
   -7.8424   -1.1011   -0.0783 C   0  0  0  0  0  0  0  0  0  0  0  0
   -8.0989   -0.1277    0.9121 C   0  0  0  0  0  0  0  0  0  0  0  0
   -4.8101    0.6984    0.7628 C   0  0  0  0  0  0  0  0  0  0  0  0
   -3.6444    0.8902    0.0007 C   0  0  0  0  0  0  0  0  0  0  0  0
   -2.4061    0.3701    0.4120 C   0  0  0  0  0  0  0  0  0  0  0  0
   -1.2413    0.5596   -0.3509 C   0  0  0  0  0  0  0  0  0  0  0  0
   -0.0033    0.0389    0.0615 C   0  0  0  0  0  0  0  0  0  0  0  0
    1.1622    0.2261   -0.7006 C   0  0  0  0  0  0  0  0  0  0  0  0
    2.3998   -0.2952   -0.2868 C   0  0  0  0  0  0  0  0  0  0  0  0
    3.5655   -0.1083   -1.0481 C   0  0  0  0  0  0  0  0  0  0  0  0
    4.8038   -0.6289   -0.6335 C   0  0  0  0  0  0  0  0  0  0  0  0
    8.1282   -0.2083   -0.1232 C   0  0  0  0  0  0  0  0  0  0  0  0
    7.8341    1.1010    0.3171 C   0  0  0  0  0  0  0  0  0  0  0  0
    8.7283    1.8176    1.1217 C   0  0  0  0  0  0  0  0  0  0  0  0
    8.4517    3.1230    1.5682 C   0  0  0  0  0  0  0  0  0  0  0  0
    9.1531    4.8110    2.7110 H   0  0  0  0  0  0  0  0  0  0  0  0
   11.2852    3.7003    3.3442 H   0  0  0  0  0  0  0  0  0  0  0  0
   11.7622    1.4037    2.5543 H   0  0  0  0  0  0  0  0  0  0  0  0
   10.6767   -2.3931    0.2451 H   0  0  0  0  0  0  0  0  0  0  0  0
   10.2779   -4.4695   -0.9195 H   0  0  0  0  0  0  0  0  0  0  0  0
    9.9013   -6.6057   -2.1033 H   0  0  0  0  0  0  0  0  0  0  0  0
    8.4733   -8.0286   -3.5211 H   0  0  0  0  0  0  0  0  0  0  0  0
    6.2751   -7.1921   -4.3134 H   0  0  0  0  0  0  0  0  0  0  0  0
    5.5093   -4.9349   -3.6864 H   0  0  0  0  0  0  0  0  0  0  0  0
    5.8938   -2.8189   -2.5126 H   0  0  0  0  0  0  0  0  0  0  0  0
    6.7636    0.4351   -3.2060 H   0  0  0  0  0  0  0  0  0  0  0  0
    4.6166    1.3556   -3.9541 H   0  0  0  0  0  0  0  0  0  0  0  0
    2.1961    1.6976   -3.6004 H   0  0  0  0  0  0  0  0  0  0  0  0
   -0.2071    2.0346   -3.2488 H   0  0  0  0  0  0  0  0  0  0  0  0
   -2.6130    2.3724   -2.8956 H   0  0  0  0  0  0  0  0  0  0  0  0
   -5.0326    2.7146   -2.5364 H   0  0  0  0  0  0  0  0  0  0  0  0
   -7.0498    2.3658   -1.1851 H   0  0  0  0  0  0  0  0  0  0  0  0
   -5.9354    3.3010    1.9521 H   0  0  0  0  0  0  0  0  0  0  0  0
   -5.5330    5.3274    3.2722 H   0  0  0  0  0  0  0  0  0  0  0  0
   -6.2179    6.8688    5.0678 H   0  0  0  0  0  0  0  0  0  0  0  0
   -8.2860    6.4289    6.3684 H   0  0  0  0  0  0  0  0  0  0  0  0
   -9.6645    4.4483    5.8687 H   0  0  0  0  0  0  0  0  0  0  0  0
  -10.0607    2.4086    4.5347 H   0  0  0  0  0  0  0  0  0  0  0  0
  -10.4768    0.4095    3.2489 H   0  0  0  0  0  0  0  0  0  0  0  0
  -11.5745   -3.4276    1.0114 H   0  0  0  0  0  0  0  0  0  0  0  0
  -11.1611   -5.1515   -0.7154 H   0  0  0  0  0  0  0  0  0  0  0  0
   -9.1574   -4.9868   -2.1771 H   0  0  0  0  0  0  0  0  0  0  0  0
   -7.5874   -3.0984   -1.8970 H   0  0  0  0  0  0  0  0  0  0  0  0
   -6.9611   -1.0157   -0.7106 H   0  0  0  0  0  0  0  0  0  0  0  0
   -4.7601    0.1348    1.6937 H   0  0  0  0  0  0  0  0  0  0  0  0
   -2.3478   -0.1922    1.3425 H   0  0  0  0  0  0  0  0  0  0  0  0
    0.0543   -0.5227    0.9925 H   0  0  0  0  0  0  0  0  0  0  0  0
    2.4566   -0.8564    0.6445 H   0  0  0  0  0  0  0  0  0  0  0  0
    4.8689   -1.1911    0.2973 H   0  0  0  0  0  0  0  0  0  0  0  0
    6.8967    1.5738    0.0317 H   0  0  0  0  0  0  0  0  0  0  0  0
    7.5203    3.6135    1.2944 H   0  0  0  0  0  0  0  0  0  0  0  0
  1  2  4  0
  2  3  4  0
  3  4  4  0
  4  5  4  0
  5  6  4  0
  6  7  4  0
  7  8  4  0
  8  9  4  0
  9 10  4  0
 10 11  4  0
 11 12  4  0
 12 13  4  0
 13 14  4  0
 14 15  4  0
 15 16  4  0
 16 17  4  0
 17 18  4  0
 18 19  1  0
 19 20  4  0
 20 21  4  0
 21 22  4  0
 22 23  4  0
 23 24  4  0
 24 25  4  0
 25 26  4  0
 26 27  4  0
 27 28  4  0
 28 29  4  0
 29 30  4  0
 30 31  4  0
 31 32  1  0
 32 33  4  0
 33 34  4  0
 34 35  4  0
 35 36  4  0
 36 37  4  0
 37 38  4  0
 38 39  4  0
 39 40  4  0
 40 41  4  0
 41 42  4  0
 42 43  4  0
 43 44  4  0
 44 45  4  0
 45 46  4  0
 46 47  4  0
 47 48  4  0
 48 49  4  0
 49 50  4  0
 50 51  4  0
 51 52  4  0
 52 53  4  0
 31 54  4  0
 54 55  4  0
 55 56  4  0
 56 57  4  0
 57 58  4  0
 58 59  4  0
 59 60  4  0
 60 61  4  0
 61 62  4  0
 18 63  4  0
 63 64  4  0
 64 65  4  0
 65 66  4  0
 66  1  4  0
 65  4  4  0
 63  6  4  0
 17  8  4  0
 62 19  4  0
 15 10  4  0
 61 22  4  0
 59 24  4  0
 57 26  4  0
 55 28  4  0
 53 32  4  0
 42 33  4  0
 53 44  4  0
 40 35  4  0
 51 46  4  0
  1 67  1  0
  2 68  1  0
  3 69  1  0
  7 70  1  0
  9 71  1  0
 11 72  1  0
 12 73  1  0
 13 74  1  0
 14 75  1  0
 16 76  1  0
 20 77  1  0
 21 78  1  0
 23 79  1  0
 25 80  1  0
 27 81  1  0
 29 82  1  0
 30 83  1  0
 34 84  1  0
 36 85  1  0
 37 86  1  0
 38 87  1  0
 39 88  1  0
 41 89  1  0
 43 90  1  0
 47 91  1  0
 48 92  1  0
 49 93  1  0
 50 94  1  0
 52 95  1  0
 54 96  1  0
 56 97  1  0
 58 98  1  0
 60 99  1  0
 62100  1  0
 64101  1  0
 66102  1  0
M  END
