
     RDKit          3D

102116  0  0  0  0  0  0  0  0999 V2000
  -13.0074   -3.1489   -3.5961 C   0  0  0  0  0  0  0  0  0  0  0  0
  -13.8718   -3.4927   -2.5634 C   0  0  0  0  0  0  0  0  0  0  0  0
  -13.5615   -3.1349   -1.2477 C   0  0  0  0  0  0  0  0  0  0  0  0
  -12.4025   -2.4376   -0.9327 C   0  0  0  0  0  0  0  0  0  0  0  0
  -12.1510   -2.1181    0.3492 N   0  0  0  0  0  0  0  0  0  0  0  0
  -11.0276   -1.4433    0.6506 C   0  0  0  0  0  0  0  0  0  0  0  0
  -10.7678   -1.1138    1.9736 C   0  0  0  0  0  0  0  0  0  0  0  0
   -9.6134   -0.4095    2.3611 C   0  0  0  0  0  0  0  0  0  0  0  0
   -9.3652   -0.0838    3.7035 C   0  0  0  0  0  0  0  0  0  0  0  0
   -8.2117    0.6191    4.0917 C   0  0  0  0  0  0  0  0  0  0  0  0
   -7.9972    0.9277    5.4435 C   0  0  0  0  0  0  0  0  0  0  0  0
   -6.8614    1.6229    5.8476 C   0  0  0  0  0  0  0  0  0  0  0  0
   -5.9223    2.0188    4.9015 C   0  0  0  0  0  0  0  0  0  0  0  0
   -6.1018    1.7276    3.5369 C   0  0  0  0  0  0  0  0  0  0  0  0
   -5.0667    2.1739    2.5911 C   0  0  0  0  0  0  0  0  0  0  0  0
   -5.1245    3.4497    2.0181 C   0  0  0  0  0  0  0  0  0  0  0  0
   -4.1398    3.8725    1.1217 C   0  0  0  0  0  0  0  0  0  0  0  0
   -3.0716    3.0294    0.7789 C   0  0  0  0  0  0  0  0  0  0  0  0
   -2.0727    3.4400   -0.1195 C   0  0  0  0  0  0  0  0  0  0  0  0
   -1.0019    2.5964   -0.4609 C   0  0  0  0  0  0  0  0  0  0  0  0
   -0.0013    3.0073   -1.3580 C   0  0  0  0  0  0  0  0  0  0  0  0
    1.0702    2.1644   -1.6989 C   0  0  0  0  0  0  0  0  0  0  0  0
    2.0706    2.5763   -2.5957 C   0  0  0  0  0  0  0  0  0  0  0  0
    3.1416    1.7339   -2.9356 C   0  0  0  0  0  0  0  0  0  0  0  0
    4.1414    2.1459   -3.8297 C   0  0  0  0  0  0  0  0  0  0  0  0
    5.2045    1.2985   -4.1526 C   0  0  0  0  0  0  0  0  0  0  0  0
    5.2933    0.0191   -3.5915 C   0  0  0  0  0  0  0  0  0  0  0  0
    6.4153   -0.8743   -3.9253 C   0  0  0  0  0  0  0  0  0  0  0  0
    6.3942   -1.5303   -5.1699 C   0  0  0  0  0  0  0  0  0  0  0  0
    7.4143   -2.4004   -5.5387 C   0  0  0  0  0  0  0  0  0  0  0  0
    8.4737   -2.6312   -4.6665 C   0  0  0  0  0  0  0  0  0  0  0  0
    8.5323   -1.9945   -3.4179 C   0  0  0  0  0  0  0  0  0  0  0  0
    9.6100   -2.2430   -2.5506 C   0  0  0  0  0  0  0  0  0  0  0  0
    9.7041   -1.6232   -1.2950 C   0  0  0  0  0  0  0  0  0  0  0  0
   10.7792   -1.8775   -0.4242 C   0  0  0  0  0  0  0  0  0  0  0  0
   10.8849   -1.2732    0.8208 C   0  0  0  0  0  0  0  0  0  0  0  0
   11.9369   -1.5645    1.6056 N   0  0  0  0  0  0  0  0  0  0  0  0
   12.0395   -0.9787    2.8117 C   0  0  0  0  0  0  0  0  0  0  0  0
   13.1249   -1.2777    3.6244 C   0  0  0  0  0  0  0  0  0  0  0  0
   13.2817   -0.6979    4.8872 C   0  0  0  0  0  0  0  0  0  0  0  0
   12.3341    0.2042    5.3565 C   0  0  0  0  0  0  0  0  0  0  0  0
   11.2351    0.5221    4.5616 C   0  0  0  0  0  0  0  0  0  0  0  0
   11.0832   -0.0646    3.2922 C   0  0  0  0  0  0  0  0  0  0  0  0
    9.9926    0.2307    2.4674 C   0  0  0  0  0  0  0  0  0  0  0  0
    9.8775   -0.3747    1.2110 C   0  0  0  0  0  0  0  0  0  0  0  0
    8.7958   -0.1060    0.3539 C   0  0  0  0  0  0  0  0  0  0  0  0
    8.6989   -0.7268   -0.8999 C   0  0  0  0  0  0  0  0  0  0  0  0
    7.6219   -0.4756   -1.7673 C   0  0  0  0  0  0  0  0  0  0  0  0
    7.5039   -1.1012   -3.0320 C   0  0  0  0  0  0  0  0  0  0  0  0
    4.2868   -0.3963   -2.7045 C   0  0  0  0  0  0  0  0  0  0  0  0
    3.2146    0.4468   -2.3653 C   0  0  0  0  0  0  0  0  0  0  0  0
    2.2149    0.0355   -1.4685 C   0  0  0  0  0  0  0  0  0  0  0  0
    1.1431    0.8788   -1.1285 C   0  0  0  0  0  0  0  0  0  0  0  0
    0.1425    0.4680   -0.2315 C   0  0  0  0  0  0  0  0  0  0  0  0
   -0.9291    1.3107    0.1093 C   0  0  0  0  0  0  0  0  0  0  0  0
   -1.9289    0.8990    1.0070 C   0  0  0  0  0  0  0  0  0  0  0  0
   -2.9989    1.7422    1.3497 C   0  0  0  0  0  0  0  0  0  0  0  0
   -3.9976    1.3307    2.2495 C   0  0  0  0  0  0  0  0  0  0  0  0
   -7.2642    1.0169    3.1178 C   0  0  0  0  0  0  0  0  0  0  0  0
   -7.5310    0.6816    1.7687 C   0  0  0  0  0  0  0  0  0  0  0  0
   -8.6852   -0.0217    1.3820 C   0  0  0  0  0  0  0  0  0  0  0  0
   -8.9361   -0.3481    0.0412 C   0  0  0  0  0  0  0  0  0  0  0  0
  -10.0961   -1.0530   -0.3261 C   0  0  0  0  0  0  0  0  0  0  0  0
  -10.3659   -1.3895   -1.6574 C   0  0  0  0  0  0  0  0  0  0  0  0
  -11.5311   -2.0920   -1.9826 C   0  0  0  0  0  0  0  0  0  0  0  0
  -11.8376   -2.4491   -3.3082 C   0  0  0  0  0  0  0  0  0  0  0  0
  -13.2422   -3.4241   -4.6209 H   0  0  0  0  0  0  0  0  0  0  0  0
  -14.7878   -4.0387   -2.7741 H   0  0  0  0  0  0  0  0  0  0  0  0
  -14.2424   -3.4074   -0.4448 H   0  0  0  0  0  0  0  0  0  0  0  0
  -11.4942   -1.4197    2.7240 H   0  0  0  0  0  0  0  0  0  0  0  0
  -10.0866   -0.3849    4.4621 H   0  0  0  0  0  0  0  0  0  0  0  0
   -8.7206    0.6260    6.1985 H   0  0  0  0  0  0  0  0  0  0  0  0
   -6.7085    1.8551    6.8982 H   0  0  0  0  0  0  0  0  0  0  0  0
   -5.0367    2.5609    5.2289 H   0  0  0  0  0  0  0  0  0  0  0  0
   -5.9430    4.1223    2.2674 H   0  0  0  0  0  0  0  0  0  0  0  0
   -4.2145    4.8697    0.6935 H   0  0  0  0  0  0  0  0  0  0  0  0
   -2.1297    4.4340   -0.5597 H   0  0  0  0  0  0  0  0  0  0  0  0
   -0.0569    4.0015   -1.7983 H   0  0  0  0  0  0  0  0  0  0  0  0
    2.0157    3.5700   -3.0365 H   0  0  0  0  0  0  0  0  0  0  0  0
    4.1025    3.1344   -4.2824 H   0  0  0  0  0  0  0  0  0  0  0  0
    5.9708    1.6455   -4.8431 H   0  0  0  0  0  0  0  0  0  0  0  0
    5.5659   -1.3654   -5.8570 H   0  0  0  0  0  0  0  0  0  0  0  0
    7.3819   -2.9014   -6.5025 H   0  0  0  0  0  0  0  0  0  0  0  0
    9.2607   -3.3179   -4.9723 H   0  0  0  0  0  0  0  0  0  0  0  0
   10.3929   -2.9350   -2.8580 H   0  0  0  0  0  0  0  0  0  0  0  0
   11.5644   -2.5707   -0.7196 H   0  0  0  0  0  0  0  0  0  0  0  0
   13.8700   -1.9827    3.2634 H   0  0  0  0  0  0  0  0  0  0  0  0
   14.1438   -0.9546    5.4972 H   0  0  0  0  0  0  0  0  0  0  0  0
   12.4498    0.6585    6.3371 H   0  0  0  0  0  0  0  0  0  0  0  0
   10.4977    1.2287    4.9354 H   0  0  0  0  0  0  0  0  0  0  0  0
    9.2328    0.9317    2.8039 H   0  0  0  0  0  0  0  0  0  0  0  0
    8.0218    0.5915    0.6687 H   0  0  0  0  0  0  0  0  0  0  0  0
    6.8557    0.2288   -1.4466 H   0  0  0  0  0  0  0  0  0  0  0  0
    4.3480   -1.3933   -2.2698 H   0  0  0  0  0  0  0  0  0  0  0  0
    2.2730   -0.9581   -1.0273 H   0  0  0  0  0  0  0  0  0  0  0  0
    0.1997   -0.5257    0.2097 H   0  0  0  0  0  0  0  0  0  0  0  0
   -1.8727   -0.0947    1.4485 H   0  0  0  0  0  0  0  0  0  0  0  0
   -3.9484    0.3375    2.6938 H   0  0  0  0  0  0  0  0  0  0  0  0
   -6.8217    0.9754    0.9960 H   0  0  0  0  0  0  0  0  0  0  0  0
   -8.2224   -0.0521   -0.7255 H   0  0  0  0  0  0  0  0  0  0  0  0
   -9.6682   -1.1049   -2.4413 H   0  0  0  0  0  0  0  0  0  0  0  0
  -11.1652   -2.1834   -4.1205 H   0  0  0  0  0  0  0  0  0  0  0  0
  1  2  4  0
  2  3  4  0
  3  4  4  0
  4  5  4  0
  5  6  4  0
  6  7  4  0
  7  8  4  0
  8  9  4  0
  9 10  4  0
 10 11  4  0
 11 12  4  0
 12 13  4  0
 13 14  4  0
 14 15  1  0
 15 16  4  0
 16 17  4  0
 17 18  4  0
 18 19  4  0
 19 20  4  0
 20 21  4  0
 21 22  4  0
 22 23  4  0
 23 24  4  0
 24 25  4  0
 25 26  4  0
 26 27  4  0
 27 28  1  0
 28 29  4  0
 29 30  4  0
 30 31  4  0
 31 32  4  0
 32 33  4  0
 33 34  4  0
 34 35  4  0
 35 36  4  0
 36 37  4  0
 37 38  4  0
 38 39  4  0
 39 40  4  0
 40 41  4  0
 41 42  4  0
 42 43  4  0
 43 44  4  0
 44 45  4  0
 45 46  4  0
 46 47  4  0
 47 48  4  0
 48 49  4  0
 27 50  4  0
 50 51  4  0
 51 52  4  0
 52 53  4  0
 53 54  4  0
 54 55  4  0
 55 56  4  0
 56 57  4  0
 57 58  4  0
 14 59  4  0
 59 60  4  0
 60 61  4  0
 61 62  4  0
 62 63  4  0
 63 64  4  0
 64 65  4  0
 65 66  4  0
 66  1  4  0
 65  4  4  0
 63  6  4  0
 61  8  4  0
 59 10  4  0
 58 15  4  0
 57 18  4  0
 55 20  4  0
 53 22  4  0
 51 24  4  0
 49 28  4  0
 49 32  4  0
 47 34  4  0
 45 36  4  0
 43 38  4  0
  1 67  1  0
  2 68  1  0
  3 69  1  0
  7 70  1  0
  9 71  1  0
 11 72  1  0
 12 73  1  0
 13 74  1  0
 16 75  1  0
 17 76  1  0
 19 77  1  0
 21 78  1  0
 23 79  1  0
 25 80  1  0
 26 81  1  0
 29 82  1  0
 30 83  1  0
 31 84  1  0
 33 85  1  0
 35 86  1  0
 39 87  1  0
 40 88  1  0
 41 89  1  0
 42 90  1  0
 44 91  1  0
 46 92  1  0
 48 93  1  0
 50 94  1  0
 52 95  1  0
 54 96  1  0
 56 97  1  0
 58 98  1  0
 60 99  1  0
 62100  1  0
 64101  1  0
 66102  1  0
M  END
