
     RDKit          3D

102116  0  0  0  0  0  0  0  0999 V2000
   -8.5127   -0.2404   -8.5750 C   0  0  0  0  0  0  0  0  0  0  0  0
   -7.8086    0.1840   -7.4471 C   0  0  0  0  0  0  0  0  0  0  0  0
   -8.3732    0.0779   -6.1652 C   0  0  0  0  0  0  0  0  0  0  0  0
   -7.6775    0.5006   -5.0204 C   0  0  0  0  0  0  0  0  0  0  0  0
   -8.2446    0.3934   -3.7393 C   0  0  0  0  0  0  0  0  0  0  0  0
   -7.5563    0.8135   -2.5919 C   0  0  0  0  0  0  0  0  0  0  0  0
   -8.1399    0.7003   -1.3170 C   0  0  0  0  0  0  0  0  0  0  0  0
   -7.4740    1.1144   -0.1570 C   0  0  0  0  0  0  0  0  0  0  0  0
   -8.0777    0.9958    1.1112 C   0  0  0  0  0  0  0  0  0  0  0  0
   -7.4583    1.4009    2.3305 C   0  0  0  0  0  0  0  0  0  0  0  0
   -6.1157    1.9997    2.3723 C   0  0  0  0  0  0  0  0  0  0  0  0
   -5.9391    3.3724    2.1618 C   0  0  0  0  0  0  0  0  0  0  0  0
   -4.6636    3.9407    2.2037 C   0  0  0  0  0  0  0  0  0  0  0  0
   -3.5338    3.1492    2.4597 C   0  0  0  0  0  0  0  0  0  0  0  0
   -2.2452    3.7061    2.5047 C   0  0  0  0  0  0  0  0  0  0  0  0
   -1.1135    2.9144    2.7621 C   0  0  0  0  0  0  0  0  0  0  0  0
    0.1756    3.4715    2.8065 C   0  0  0  0  0  0  0  0  0  0  0  0
    1.3082    2.6808    3.0635 C   0  0  0  0  0  0  0  0  0  0  0  0
    2.5974    3.2383    3.1062 C   0  0  0  0  0  0  0  0  0  0  0  0
    3.7291    2.4475    3.3639 C   0  0  0  0  0  0  0  0  0  0  0  0
    5.0167    3.0036    3.4056 C   0  0  0  0  0  0  0  0  0  0  0  0
    6.1324    2.2034    3.6630 C   0  0  0  0  0  0  0  0  0  0  0  0
    5.9882    0.8287    3.8833 C   0  0  0  0  0  0  0  0  0  0  0  0
    7.1619   -0.0157    4.1514 C   0  0  0  0  0  0  0  0  0  0  0  0
    7.8126   -0.7660    3.1276 C   0  0  0  0  0  0  0  0  0  0  0  0
    7.4116   -0.7680    1.7764 C   0  0  0  0  0  0  0  0  0  0  0  0
    8.0937   -1.5296    0.8200 C   0  0  0  0  0  0  0  0  0  0  0  0
    7.7069   -1.5470   -0.5323 C   0  0  0  0  0  0  0  0  0  0  0  0
    8.4062   -2.3181   -1.4717 C   0  0  0  0  0  0  0  0  0  0  0  0
    8.0335   -2.3477   -2.8263 C   0  0  0  0  0  0  0  0  0  0  0  0
    8.7394   -3.1223   -3.7619 C   0  0  0  0  0  0  0  0  0  0  0  0
    8.3695   -3.1537   -5.1169 C   0  0  0  0  0  0  0  0  0  0  0  0
    9.0813   -3.9286   -6.0341 C   0  0  0  0  0  0  0  0  0  0  0  0
   10.1712   -4.6816   -5.6089 C   0  0  0  0  0  0  0  0  0  0  0  0
   10.5511   -4.6609   -4.2659 C   0  0  0  0  0  0  0  0  0  0  0  0
    9.8450   -3.8862   -3.3308 C   0  0  0  0  0  0  0  0  0  0  0  0
   10.2150   -3.8551   -1.9760 C   0  0  0  0  0  0  0  0  0  0  0  0
    9.5084   -3.0796   -1.0413 C   0  0  0  0  0  0  0  0  0  0  0  0
    9.8769   -3.0468    0.3156 C   0  0  0  0  0  0  0  0  0  0  0  0
    9.1907   -2.2870    1.2534 C   0  0  0  0  0  0  0  0  0  0  0  0
    9.5932   -2.2989    2.5348 N   0  0  0  0  0  0  0  0  0  0  0  0
    8.9307   -1.5644    3.4452 C   0  0  0  0  0  0  0  0  0  0  0  0
    9.3768   -1.5998    4.7577 C   0  0  0  0  0  0  0  0  0  0  0  0
    8.7535   -0.8705    5.7690 C   0  0  0  0  0  0  0  0  0  0  0  0
    7.6510   -0.0823    5.4659 C   0  0  0  0  0  0  0  0  0  0  0  0
    4.6998    0.2724    3.8456 C   0  0  0  0  0  0  0  0  0  0  0  0
    3.5680    1.0644    3.5860 C   0  0  0  0  0  0  0  0  0  0  0  0
    2.2792    0.5078    3.5423 C   0  0  0  0  0  0  0  0  0  0  0  0
    1.1473    1.2991    3.2831 C   0  0  0  0  0  0  0  0  0  0  0  0
   -0.1419    0.7419    3.2387 C   0  0  0  0  0  0  0  0  0  0  0  0
   -1.2745    1.5324    2.9805 C   0  0  0  0  0  0  0  0  0  0  0  0
   -2.5637    0.9748    2.9359 C   0  0  0  0  0  0  0  0  0  0  0  0
   -3.6959    1.7655    2.6773 C   0  0  0  0  0  0  0  0  0  0  0  0
   -4.9859    1.2079    2.6314 C   0  0  0  0  0  0  0  0  0  0  0  0
   -8.1501    1.2291    3.5403 C   0  0  0  0  0  0  0  0  0  0  0  0
   -9.4235    0.6748    3.5525 C   0  0  0  0  0  0  0  0  0  0  0  0
  -10.0164    0.2873    2.3521 C   0  0  0  0  0  0  0  0  0  0  0  0
   -9.3719    0.4358    1.1334 C   0  0  0  0  0  0  0  0  0  0  0  0
  -10.0196    0.0345    0.0260 N   0  0  0  0  0  0  0  0  0  0  0  0
   -9.4257    0.1613   -1.1719 C   0  0  0  0  0  0  0  0  0  0  0  0
  -10.0987   -0.2524   -2.3136 C   0  0  0  0  0  0  0  0  0  0  0  0
   -9.5357   -0.1480   -3.5981 C   0  0  0  0  0  0  0  0  0  0  0  0
  -10.2327   -0.5714   -4.7424 C   0  0  0  0  0  0  0  0  0  0  0  0
   -9.6680   -0.4653   -6.0242 C   0  0  0  0  0  0  0  0  0  0  0  0
  -10.3639   -0.8879   -7.1689 C   0  0  0  0  0  0  0  0  0  0  0  0
   -9.7893   -0.7759   -8.4359 C   0  0  0  0  0  0  0  0  0  0  0  0
   -8.0636   -0.1524   -9.5608 H   0  0  0  0  0  0  0  0  0  0  0  0
   -6.8119    0.5999   -7.5760 H   0  0  0  0  0  0  0  0  0  0  0  0
   -6.6789    0.9198   -5.1299 H   0  0  0  0  0  0  0  0  0  0  0  0
   -6.5569    1.2337   -2.6880 H   0  0  0  0  0  0  0  0  0  0  0  0
   -6.4736    1.5330   -0.2448 H   0  0  0  0  0  0  0  0  0  0  0  0
   -6.7991    4.0093    1.9628 H   0  0  0  0  0  0  0  0  0  0  0  0
   -4.5606    5.0106    2.0357 H   0  0  0  0  0  0  0  0  0  0  0  0
   -2.1212    4.7747    2.3373 H   0  0  0  0  0  0  0  0  0  0  0  0
    0.3002    4.5399    2.6386 H   0  0  0  0  0  0  0  0  0  0  0  0
    2.7219    4.3064    2.9365 H   0  0  0  0  0  0  0  0  0  0  0  0
    5.1632    4.0682    3.2366 H   0  0  0  0  0  0  0  0  0  0  0  0
    7.1202    2.6598    3.6870 H   0  0  0  0  0  0  0  0  0  0  0  0
    6.5593   -0.1691    1.4622 H   0  0  0  0  0  0  0  0  0  0  0  0
    6.8519   -0.9540   -0.8521 H   0  0  0  0  0  0  0  0  0  0  0  0
    7.1803   -1.7590   -3.1585 H   0  0  0  0  0  0  0  0  0  0  0  0
    7.5203   -2.5720   -5.4685 H   0  0  0  0  0  0  0  0  0  0  0  0
    8.7837   -3.9434   -7.0793 H   0  0  0  0  0  0  0  0  0  0  0  0
   10.7270   -5.2860   -6.3212 H   0  0  0  0  0  0  0  0  0  0  0  0
   11.4058   -5.2564   -3.9527 H   0  0  0  0  0  0  0  0  0  0  0  0
   11.0675   -4.4446   -1.6428 H   0  0  0  0  0  0  0  0  0  0  0  0
   10.7274   -3.6314    0.6610 H   0  0  0  0  0  0  0  0  0  0  0  0
   10.2399   -2.2164    4.9997 H   0  0  0  0  0  0  0  0  0  0  0  0
    9.1290   -0.9211    6.7875 H   0  0  0  0  0  0  0  0  0  0  0  0
    7.1654    0.4828    6.2597 H   0  0  0  0  0  0  0  0  0  0  0  0
    4.5819   -0.7963    4.0202 H   0  0  0  0  0  0  0  0  0  0  0  0
    2.1545   -0.5601    3.7135 H   0  0  0  0  0  0  0  0  0  0  0  0
   -0.2643   -0.3266    3.4078 H   0  0  0  0  0  0  0  0  0  0  0  0
   -2.6878   -0.0934    3.1060 H   0  0  0  0  0  0  0  0  0  0  0  0
   -5.1176    0.1395    2.7975 H   0  0  0  0  0  0  0  0  0  0  0  0
   -7.6926    1.5337    4.4801 H   0  0  0  0  0  0  0  0  0  0  0  0
   -9.9571    0.5444    4.4900 H   0  0  0  0  0  0  0  0  0  0  0  0
  -11.0145   -0.1454    2.3666 H   0  0  0  0  0  0  0  0  0  0  0  0
  -11.0964   -0.6695   -2.1909 H   0  0  0  0  0  0  0  0  0  0  0  0
  -11.2317   -0.9904   -4.6334 H   0  0  0  0  0  0  0  0  0  0  0  0
  -11.3629   -1.3092   -7.0806 H   0  0  0  0  0  0  0  0  0  0  0  0
  -10.3396   -1.1071   -9.3128 H   0  0  0  0  0  0  0  0  0  0  0  0
  1  2  4  0
  2  3  4  0
  3  4  4  0
  4  5  4  0
  5  6  4  0
  6  7  4  0
  7  8  4  0
  8  9  4  0
  9 10  4  0
 10 11  1  0
 11 12  4  0
 12 13  4  0
 13 14  4  0
 14 15  4  0
 15 16  4  0
 16 17  4  0
 17 18  4  0
 18 19  4  0
 19 20  4  0
 20 21  4  0
 21 22  4  0
 22 23  4  0
 23 24  1  0
 24 25  4  0
 25 26  4  0
 26 27  4  0
 27 28  4  0
 28 29  4  0
 29 30  4  0
 30 31  4  0
 31 32  4  0
 32 33  4  0
 33 34  4  0
 34 35  4  0
 35 36  4  0
 36 37  4  0
 37 38  4  0
 38 39  4  0
 39 40  4  0
 40 41  4  0
 41 42  4  0
 42 43  4  0
 43 44  4  0
 44 45  4  0
 23 46  4  0
 46 47  4  0
 47 48  4  0
 48 49  4  0
 49 50  4  0
 50 51  4  0
 51 52  4  0
 52 53  4  0
 53 54  4  0
 10 55  4  0
 55 56  4  0
 56 57  4  0
 57 58  4  0
 58 59  4  0
 59 60  4  0
 60 61  4  0
 61 62  4  0
 62 63  4  0
 63 64  4  0
 64 65  4  0
 65 66  4  0
 66  1  4  0
 64  3  4  0
 62  5  4  0
 60  7  4  0
 58  9  4  0
 54 11  4  0
 53 14  4  0
 51 16  4  0
 49 18  4  0
 47 20  4  0
 45 24  4  0
 42 25  4  0
 40 27  4  0
 38 29  4  0
 36 31  4  0
  1 67  1  0
  2 68  1  0
  4 69  1  0
  6 70  1  0
  8 71  1  0
 12 72  1  0
 13 73  1  0
 15 74  1  0
 17 75  1  0
 19 76  1  0
 21 77  1  0
 22 78  1  0
 26 79  1  0
 28 80  1  0
 30 81  1  0
 32 82  1  0
 33 83  1  0
 34 84  1  0
 35 85  1  0
 37 86  1  0
 39 87  1  0
 43 88  1  0
 44 89  1  0
 45 90  1  0
 46 91  1  0
 48 92  1  0
 50 93  1  0
 52 94  1  0
 54 95  1  0
 55 96  1  0
 56 97  1  0
 57 98  1  0
 61 99  1  0
 63100  1  0
 65101  1  0
 66102  1  0
M  END
