
     RDKit          3D

 92106  0  0  0  0  0  0  0  0999 V2000
   18.0833   -0.3549    4.5057 C   0  0  0  0  0  0  0  0  0  0  0  0
   17.5255   -0.9886    3.4203 C   0  0  0  0  0  0  0  0  0  0  0  0
   16.1877   -0.5476    3.1435 C   0  0  0  0  0  0  0  0  0  0  0  0
   15.2785   -0.9416    2.1324 C   0  0  0  0  0  0  0  0  0  0  0  0
   13.9960   -0.3704    2.0433 C   0  0  0  0  0  0  0  0  0  0  0  0
   13.0936   -0.7612    1.0399 C   0  0  0  0  0  0  0  0  0  0  0  0
   11.8109   -0.1964    0.9429 C   0  0  0  0  0  0  0  0  0  0  0  0
   11.4208    0.7825    1.8716 C   0  0  0  0  0  0  0  0  0  0  0  0
   12.3238    1.1728    2.8746 C   0  0  0  0  0  0  0  0  0  0  0  0
   13.6065    0.6087    2.9721 C   0  0  0  0  0  0  0  0  0  0  0  0
   14.4973    1.0104    3.9814 C   0  0  0  0  0  0  0  0  0  0  0  0
   15.7772    0.4264    4.0537 C   0  0  0  0  0  0  0  0  0  0  0  0
   17.0130    0.7733    5.2043 S   0  0  0  0  0  0  0  0  0  0  0  0
   10.1413    1.3565    1.7880 C   0  0  0  0  0  0  0  0  0  0  0  0
    9.2581    0.9440    0.7711 C   0  0  0  0  0  0  0  0  0  0  0  0
    7.6591    1.5147    0.4923 S   0  0  0  0  0  0  0  0  0  0  0  0
    7.4286    0.4851   -0.8540 C   0  0  0  0  0  0  0  0  0  0  0  0
    6.1672    0.5075   -1.6046 C   0  0  0  0  0  0  0  0  0  0  0  0
    6.1872    0.5778   -3.0023 C   0  0  0  0  0  0  0  0  0  0  0  0
    4.9957    0.5882   -3.7335 C   0  0  0  0  0  0  0  0  0  0  0  0
    3.7548    0.5234   -3.0834 C   0  0  0  0  0  0  0  0  0  0  0  0
    2.5490    0.5322   -3.8038 C   0  0  0  0  0  0  0  0  0  0  0  0
    1.3060    0.4646   -3.1523 C   0  0  0  0  0  0  0  0  0  0  0  0
    0.0993    0.4732   -3.8723 C   0  0  0  0  0  0  0  0  0  0  0  0
   -1.1439    0.4051   -3.2215 C   0  0  0  0  0  0  0  0  0  0  0  0
   -2.3500    0.4134   -3.9423 C   0  0  0  0  0  0  0  0  0  0  0  0
   -3.5926    0.3455   -3.2910 C   0  0  0  0  0  0  0  0  0  0  0  0
   -4.7967    0.3518   -4.0100 C   0  0  0  0  0  0  0  0  0  0  0  0
   -6.0255    0.2839   -3.3470 C   0  0  0  0  0  0  0  0  0  0  0  0
   -6.0811    0.2130   -1.9503 C   0  0  0  0  0  0  0  0  0  0  0  0
   -7.3805    0.1315   -1.2714 C   0  0  0  0  0  0  0  0  0  0  0  0
   -8.4630   -0.6688   -1.5785 C   0  0  0  0  0  0  0  0  0  0  0  0
   -9.5853   -0.4740   -0.7055 C   0  0  0  0  0  0  0  0  0  0  0  0
  -10.8564   -1.0970   -0.6844 C   0  0  0  0  0  0  0  0  0  0  0  0
  -11.8229   -0.7469    0.2762 C   0  0  0  0  0  0  0  0  0  0  0  0
  -11.5251    0.2381    1.2323 C   0  0  0  0  0  0  0  0  0  0  0  0
  -12.4965    0.5808    2.1874 C   0  0  0  0  0  0  0  0  0  0  0  0
  -13.7580   -0.0367    2.2106 C   0  0  0  0  0  0  0  0  0  0  0  0
  -14.7179    0.3179    3.1731 C   0  0  0  0  0  0  0  0  0  0  0  0
  -15.9745   -0.3188    3.1712 C   0  0  0  0  0  0  0  0  0  0  0  0
  -17.2841   -0.0345    4.2557 S   0  0  0  0  0  0  0  0  0  0  0  0
  -18.2674   -1.1986    3.4911 C   0  0  0  0  0  0  0  0  0  0  0  0
  -17.6259   -1.7978    2.4327 C   0  0  0  0  0  0  0  0  0  0  0  0
  -16.2945   -1.2996    2.2325 C   0  0  0  0  0  0  0  0  0  0  0  0
  -15.3164   -1.6458    1.2692 C   0  0  0  0  0  0  0  0  0  0  0  0
  -14.0556   -1.0216    1.2543 C   0  0  0  0  0  0  0  0  0  0  0  0
  -13.0845   -1.3648    0.2987 C   0  0  0  0  0  0  0  0  0  0  0  0
  -10.2680    0.8652    1.2231 C   0  0  0  0  0  0  0  0  0  0  0  0
   -9.3142    0.4993    0.2532 C   0  0  0  0  0  0  0  0  0  0  0  0
   -7.7278    1.1383    0.0671 S   0  0  0  0  0  0  0  0  0  0  0  0
   -4.8760    0.2014   -1.2312 C   0  0  0  0  0  0  0  0  0  0  0  0
   -3.6316    0.2685   -1.8841 C   0  0  0  0  0  0  0  0  0  0  0  0
   -2.4250    0.2593   -1.1645 C   0  0  0  0  0  0  0  0  0  0  0  0
   -1.1817    0.3269   -1.8159 C   0  0  0  0  0  0  0  0  0  0  0  0
    0.0249    0.3187   -1.0959 C   0  0  0  0  0  0  0  0  0  0  0  0
    1.2684    0.3865   -1.7468 C   0  0  0  0  0  0  0  0  0  0  0  0
    2.4748    0.3784   -1.0261 C   0  0  0  0  0  0  0  0  0  0  0  0
    3.7183    0.4465   -1.6763 C   0  0  0  0  0  0  0  0  0  0  0  0
    4.9257    0.4381   -0.9542 C   0  0  0  0  0  0  0  0  0  0  0  0
    8.5581   -0.2720   -1.0932 C   0  0  0  0  0  0  0  0  0  0  0  0
    9.6215   -0.0243   -0.1619 C   0  0  0  0  0  0  0  0  0  0  0  0
   10.9139   -0.5938   -0.0654 C   0  0  0  0  0  0  0  0  0  0  0  0
   19.0702   -0.5008    4.9227 H   0  0  0  0  0  0  0  0  0  0  0  0
   18.0493   -1.7399    2.8421 H   0  0  0  0  0  0  0  0  0  0  0  0
   15.5884   -1.7004    1.4175 H   0  0  0  0  0  0  0  0  0  0  0  0
   13.3960   -1.5203    0.3202 H   0  0  0  0  0  0  0  0  0  0  0  0
   12.0217    1.9320    3.5948 H   0  0  0  0  0  0  0  0  0  0  0  0
   14.2103    1.7668    4.7073 H   0  0  0  0  0  0  0  0  0  0  0  0
    9.8252    2.1154    2.4992 H   0  0  0  0  0  0  0  0  0  0  0  0
    7.1322    0.6385   -3.5377 H   0  0  0  0  0  0  0  0  0  0  0  0
    5.0464    0.6499   -4.8184 H   0  0  0  0  0  0  0  0  0  0  0  0
    2.5784    0.5926   -4.8903 H   0  0  0  0  0  0  0  0  0  0  0  0
    0.1284    0.5343   -4.9588 H   0  0  0  0  0  0  0  0  0  0  0  0
   -2.3209    0.4738   -5.0288 H   0  0  0  0  0  0  0  0  0  0  0  0
   -4.7894    0.4126   -5.0962 H   0  0  0  0  0  0  0  0  0  0  0  0
   -6.9406    0.3008   -3.9350 H   0  0  0  0  0  0  0  0  0  0  0  0
   -8.4560   -1.3819   -2.3941 H   0  0  0  0  0  0  0  0  0  0  0  0
  -11.0782   -1.8589   -1.4283 H   0  0  0  0  0  0  0  0  0  0  0  0
  -12.2658    1.3446    2.9289 H   0  0  0  0  0  0  0  0  0  0  0  0
  -14.5023    1.0781    3.9195 H   0  0  0  0  0  0  0  0  0  0  0  0
  -19.2685   -1.3891    3.8527 H   0  0  0  0  0  0  0  0  0  0  0  0
  -18.0862   -2.5640    1.8211 H   0  0  0  0  0  0  0  0  0  0  0  0
  -15.5559   -2.4094    0.5327 H   0  0  0  0  0  0  0  0  0  0  0  0
  -13.3154   -2.1285   -0.4424 H   0  0  0  0  0  0  0  0  0  0  0  0
  -10.0228    1.6295    1.9560 H   0  0  0  0  0  0  0  0  0  0  0  0
   -4.9014    0.1292   -0.1453 H   0  0  0  0  0  0  0  0  0  0  0  0
   -2.4543    0.1999   -0.0778 H   0  0  0  0  0  0  0  0  0  0  0  0
   -0.0039    0.2590   -0.0092 H   0  0  0  0  0  0  0  0  0  0  0  0
    2.4453    0.3189    0.0606 H   0  0  0  0  0  0  0  0  0  0  0  0
    4.8938    0.3657    0.1315 H   0  0  0  0  0  0  0  0  0  0  0  0
    8.6254   -0.9905   -1.9014 H   0  0  0  0  0  0  0  0  0  0  0  0
   11.2074   -1.3512   -0.7887 H   0  0  0  0  0  0  0  0  0  0  0  0
  1  2  4  0
  2  3  4  0
  3  4  4  0
  4  5  4  0
  5  6  4  0
  6  7  4  0
  7  8  4  0
  8  9  4  0
  9 10  4  0
 10 11  4  0
 11 12  4  0
 12 13  4  0
  8 14  4  0
 14 15  4  0
 15 16  4  0
 16 17  4  0
 17 18  1  0
 18 19  4  0
 19 20  4  0
 20 21  4  0
 21 22  4  0
 22 23  4  0
 23 24  4  0
 24 25  4  0
 25 26  4  0
 26 27  4  0
 27 28  4  0
 28 29  4  0
 29 30  4  0
 30 31  1  0
 31 32  4  0
 32 33  4  0
 33 34  4  0
 34 35  4  0
 35 36  4  0
 36 37  4  0
 37 38  4  0
 38 39  4  0
 39 40  4  0
 40 41  4  0
 41 42  4  0
 42 43  4  0
 43 44  4  0
 44 45  4  0
 45 46  4  0
 46 47  4  0
 36 48  4  0
 48 49  4  0
 49 50  4  0
 30 51  4  0
 51 52  4  0
 52 53  4  0
 53 54  4  0
 54 55  4  0
 55 56  4  0
 56 57  4  0
 57 58  4  0
 58 59  4  0
 17 60  4  0
 60 61  4  0
 61 62  4  0
 13  1  4  0
 61 15  4  0
 12  3  4  0
 59 18  4  0
 10  5  4  0
 58 21  4  0
 62  7  4  0
 56 23  4  0
 54 25  4  0
 52 27  4  0
 50 31  4  0
 49 33  4  0
 47 35  4  0
 46 38  4  0
 44 40  4  0
  1 63  1  0
  2 64  1  0
  4 65  1  0
  6 66  1  0
  9 67  1  0
 11 68  1  0
 14 69  1  0
 19 70  1  0
 20 71  1  0
 22 72  1  0
 24 73  1  0
 26 74  1  0
 28 75  1  0
 29 76  1  0
 32 77  1  0
 34 78  1  0
 37 79  1  0
 39 80  1  0
 42 81  1  0
 43 82  1  0
 45 83  1  0
 47 84  1  0
 48 85  1  0
 51 86  1  0
 53 87  1  0
 55 88  1  0
 57 89  1  0
 59 90  1  0
 60 91  1  0
 62 92  1  0
M  END
