
     RDKit          3D

 92106  0  0  0  0  0  0  0  0999 V2000
   18.1378   -0.8684   -4.2134 C   0  0  0  0  0  0  0  0  0  0  0  0
   17.5501    0.0970   -3.4301 C   0  0  0  0  0  0  0  0  0  0  0  0
   16.2172   -0.2488   -3.0247 C   0  0  0  0  0  0  0  0  0  0  0  0
   15.2842    0.4575   -2.2280 C   0  0  0  0  0  0  0  0  0  0  0  0
   14.0121   -0.0756   -1.9510 C   0  0  0  0  0  0  0  0  0  0  0  0
   13.6571   -1.3307   -2.4723 C   0  0  0  0  0  0  0  0  0  0  0  0
   12.3844   -1.8539   -2.1898 C   0  0  0  0  0  0  0  0  0  0  0  0
   11.4581   -1.1537   -1.3993 C   0  0  0  0  0  0  0  0  0  0  0  0
   10.1891   -1.6911   -1.1265 C   0  0  0  0  0  0  0  0  0  0  0  0
    9.2822   -0.9651   -0.3299 C   0  0  0  0  0  0  0  0  0  0  0  0
    7.6906   -1.4372    0.1220 S   0  0  0  0  0  0  0  0  0  0  0  0
    7.4208   -0.0030    1.0136 C   0  0  0  0  0  0  0  0  0  0  0  0
    6.1505    0.2116    1.7165 C   0  0  0  0  0  0  0  0  0  0  0  0
    6.1537    0.6302    3.0519 C   0  0  0  0  0  0  0  0  0  0  0  0
    4.9533    0.8509    3.7330 C   0  0  0  0  0  0  0  0  0  0  0  0
    3.7200    0.6632    3.0920 C   0  0  0  0  0  0  0  0  0  0  0  0
    2.5049    0.8816    3.7620 C   0  0  0  0  0  0  0  0  0  0  0  0
    1.2697    0.6959    3.1182 C   0  0  0  0  0  0  0  0  0  0  0  0
    0.0535    0.9144    3.7872 C   0  0  0  0  0  0  0  0  0  0  0  0
   -1.1817    0.7291    3.1435 C   0  0  0  0  0  0  0  0  0  0  0  0
   -2.3977    0.9480    3.8127 C   0  0  0  0  0  0  0  0  0  0  0  0
   -3.6320    0.7628    3.1682 C   0  0  0  0  0  0  0  0  0  0  0  0
   -4.8460    0.9833    3.8351 C   0  0  0  0  0  0  0  0  0  0  0  0
   -6.0662    0.7952    3.1796 C   0  0  0  0  0  0  0  0  0  0  0  0
   -6.1028    0.3774    1.8443 C   0  0  0  0  0  0  0  0  0  0  0  0
   -7.3934    0.1963    1.1687 C   0  0  0  0  0  0  0  0  0  0  0  0
   -8.4863    1.0399    1.1624 C   0  0  0  0  0  0  0  0  0  0  0  0
   -9.5963    0.5332    0.4071 C   0  0  0  0  0  0  0  0  0  0  0  0
  -10.8727    1.0918    0.1568 C   0  0  0  0  0  0  0  0  0  0  0  0
  -11.8250    0.4104   -0.6227 C   0  0  0  0  0  0  0  0  0  0  0  0
  -13.0920    0.9639   -0.8718 C   0  0  0  0  0  0  0  0  0  0  0  0
  -14.0495    0.2905   -1.6485 C   0  0  0  0  0  0  0  0  0  0  0  0
  -13.7327   -0.9666   -2.1893 C   0  0  0  0  0  0  0  0  0  0  0  0
  -12.4655   -1.5192   -1.9400 C   0  0  0  0  0  0  0  0  0  0  0  0
  -11.5075   -0.8464   -1.1635 C   0  0  0  0  0  0  0  0  0  0  0  0
  -10.2445   -1.4129   -0.9237 C   0  0  0  0  0  0  0  0  0  0  0  0
   -9.3050   -0.7137   -0.1409 C   0  0  0  0  0  0  0  0  0  0  0  0
   -7.7145   -1.2239    0.2713 S   0  0  0  0  0  0  0  0  0  0  0  0
  -14.6795   -1.6528   -2.9679 C   0  0  0  0  0  0  0  0  0  0  0  0
  -15.9420   -1.0728   -3.2006 C   0  0  0  0  0  0  0  0  0  0  0  0
  -17.2377   -1.7412   -4.1203 S   0  0  0  0  0  0  0  0  0  0  0  0
  -18.2396   -0.3935   -3.8269 C   0  0  0  0  0  0  0  0  0  0  0  0
  -17.6147    0.5516   -3.0477 C   0  0  0  0  0  0  0  0  0  0  0  0
  -16.2808    0.1741   -2.6750 C   0  0  0  0  0  0  0  0  0  0  0  0
  -15.3159    0.8528   -1.8925 C   0  0  0  0  0  0  0  0  0  0  0  0
   -4.8883    0.1612    1.1755 C   0  0  0  0  0  0  0  0  0  0  0  0
   -3.6525    0.3472    1.8214 C   0  0  0  0  0  0  0  0  0  0  0  0
   -2.4360    0.1293    1.1531 C   0  0  0  0  0  0  0  0  0  0  0  0
   -1.2012    0.3150    1.7976 C   0  0  0  0  0  0  0  0  0  0  0  0
    0.0149    0.0964    1.1288 C   0  0  0  0  0  0  0  0  0  0  0  0
    1.2500    0.2817    1.7724 C   0  0  0  0  0  0  0  0  0  0  0  0
    2.4655    0.0624    1.1025 C   0  0  0  0  0  0  0  0  0  0  0  0
    3.7009    0.2472    1.7452 C   0  0  0  0  0  0  0  0  0  0  0  0
    4.9172    0.0277    1.0734 C   0  0  0  0  0  0  0  0  0  0  0  0
    8.5306    0.8172    0.9750 C   0  0  0  0  0  0  0  0  0  0  0  0
    9.6120    0.2803    0.1997 C   0  0  0  0  0  0  0  0  0  0  0  0
   10.8937    0.8096   -0.0843 C   0  0  0  0  0  0  0  0  0  0  0  0
   11.8139    0.1011   -0.8779 C   0  0  0  0  0  0  0  0  0  0  0  0
   13.0864    0.6252   -1.1601 C   0  0  0  0  0  0  0  0  0  0  0  0
   14.5719   -2.0440   -3.2646 C   0  0  0  0  0  0  0  0  0  0  0  0
   15.8408   -1.4931   -3.5305 C   0  0  0  0  0  0  0  0  0  0  0  0
   17.1017   -2.1973   -4.4717 S   0  0  0  0  0  0  0  0  0  0  0  0
   19.1282   -0.8567   -4.6472 H   0  0  0  0  0  0  0  0  0  0  0  0
   18.0496    1.0175   -3.1542 H   0  0  0  0  0  0  0  0  0  0  0  0
   15.5670    1.4286   -1.8283 H   0  0  0  0  0  0  0  0  0  0  0  0
   12.1087   -2.8271   -2.5938 H   0  0  0  0  0  0  0  0  0  0  0  0
    9.8993   -2.6609   -1.5228 H   0  0  0  0  0  0  0  0  0  0  0  0
    7.0929    0.7766    3.5811 H   0  0  0  0  0  0  0  0  0  0  0  0
    4.9913    1.1697    4.7724 H   0  0  0  0  0  0  0  0  0  0  0  0
    2.5207    1.2020    4.8023 H   0  0  0  0  0  0  0  0  0  0  0  0
    0.0686    1.2342    4.8277 H   0  0  0  0  0  0  0  0  0  0  0  0
   -2.3831    1.2681    4.8531 H   0  0  0  0  0  0  0  0  0  0  0  0
   -4.8527    1.3024    4.8751 H   0  0  0  0  0  0  0  0  0  0  0  0
   -6.9895    0.9661    3.7288 H   0  0  0  0  0  0  0  0  0  0  0  0
   -8.4960    1.9960    1.6719 H   0  0  0  0  0  0  0  0  0  0  0  0
  -11.1100    2.0654    0.5796 H   0  0  0  0  0  0  0  0  0  0  0  0
  -13.3379    1.9383   -0.4528 H   0  0  0  0  0  0  0  0  0  0  0  0
  -12.2194   -2.4939   -2.3590 H   0  0  0  0  0  0  0  0  0  0  0  0
   -9.9839   -2.3847   -1.3350 H   0  0  0  0  0  0  0  0  0  0  0  0
  -14.4496   -2.6264   -3.3931 H   0  0  0  0  0  0  0  0  0  0  0  0
  -19.2387   -0.3569   -4.2387 H   0  0  0  0  0  0  0  0  0  0  0  0
  -18.0886    1.4796   -2.7524 H   0  0  0  0  0  0  0  0  0  0  0  0
  -15.5695    1.8257   -1.4778 H   0  0  0  0  0  0  0  0  0  0  0  0
   -4.8998   -0.1474    0.1316 H   0  0  0  0  0  0  0  0  0  0  0  0
   -2.4506   -0.1917    0.1129 H   0  0  0  0  0  0  0  0  0  0  0  0
    0.0002   -0.2242    0.0884 H   0  0  0  0  0  0  0  0  0  0  0  0
    2.4497   -0.2587    0.0623 H   0  0  0  0  0  0  0  0  0  0  0  0
    4.8986   -0.2814    0.0298 H   0  0  0  0  0  0  0  0  0  0  0  0
    8.5714    1.7771    1.4757 H   0  0  0  0  0  0  0  0  0  0  0  0
   11.1600    1.7819    0.3239 H   0  0  0  0  0  0  0  0  0  0  0  0
   13.3619    1.5981   -0.7561 H   0  0  0  0  0  0  0  0  0  0  0  0
   14.3122   -3.0165   -3.6750 H   0  0  0  0  0  0  0  0  0  0  0  0
  1  2  4  0
  2  3  4  0
  3  4  4  0
  4  5  4  0
  5  6  4  0
  6  7  4  0
  7  8  4  0
  8  9  4  0
  9 10  4  0
 10 11  4  0
 11 12  4  0
 12 13  1  0
 13 14  4  0
 14 15  4  0
 15 16  4  0
 16 17  4  0
 17 18  4  0
 18 19  4  0
 19 20  4  0
 20 21  4  0
 21 22  4  0
 22 23  4  0
 23 24  4  0
 24 25  4  0
 25 26  1  0
 26 27  4  0
 27 28  4  0
 28 29  4  0
 29 30  4  0
 30 31  4  0
 31 32  4  0
 32 33  4  0
 33 34  4  0
 34 35  4  0
 35 36  4  0
 36 37  4  0
 37 38  4  0
 33 39  4  0
 39 40  4  0
 40 41  4  0
 41 42  4  0
 42 43  4  0
 43 44  4  0
 44 45  4  0
 25 46  4  0
 46 47  4  0
 47 48  4  0
 48 49  4  0
 49 50  4  0
 50 51  4  0
 51 52  4  0
 52 53  4  0
 53 54  4  0
 12 55  4  0
 55 56  4  0
 56 57  4  0
 57 58  4  0
 58 59  4  0
  6 60  4  0
 60 61  4  0
 61 62  4  0
 62  1  4  0
 61  3  4  0
 59  5  4  0
 58  8  4  0
 56 10  4  0
 54 13  4  0
 53 16  4  0
 51 18  4  0
 49 20  4  0
 47 22  4  0
 38 26  4  0
 44 40  4  0
 37 28  4  0
 35 30  4  0
 45 32  4  0
  1 63  1  0
  2 64  1  0
  4 65  1  0
  7 66  1  0
  9 67  1  0
 14 68  1  0
 15 69  1  0
 17 70  1  0
 19 71  1  0
 21 72  1  0
 23 73  1  0
 24 74  1  0
 27 75  1  0
 29 76  1  0
 31 77  1  0
 34 78  1  0
 36 79  1  0
 39 80  1  0
 42 81  1  0
 43 82  1  0
 45 83  1  0
 46 84  1  0
 48 85  1  0
 50 86  1  0
 52 87  1  0
 54 88  1  0
 55 89  1  0
 57 90  1  0
 59 91  1  0
 60 92  1  0
M  END
