
     RDKit          3D

 86 98  0  0  0  0  0  0  0  0999 V2000
   -8.6127    0.3422   -2.9609 C   0  0  0  0  0  0  0  0  0  0  0  0
   -7.4141    0.7832   -2.3925 C   0  0  0  0  0  0  0  0  0  0  0  0
   -7.2945    0.9561   -1.0076 C   0  0  0  0  0  0  0  0  0  0  0  0
   -6.0349    1.4232   -0.4080 C   0  0  0  0  0  0  0  0  0  0  0  0
   -6.0025    2.5641    0.4049 C   0  0  0  0  0  0  0  0  0  0  0  0
   -4.8051    3.0089    0.9729 C   0  0  0  0  0  0  0  0  0  0  0  0
   -3.6043    2.3221    0.7442 C   0  0  0  0  0  0  0  0  0  0  0  0
   -2.3929    2.7558    1.3078 C   0  0  0  0  0  0  0  0  0  0  0  0
   -1.1904    2.0660    1.0791 C   0  0  0  0  0  0  0  0  0  0  0  0
    0.0217    2.4992    1.6424 C   0  0  0  0  0  0  0  0  0  0  0  0
    1.2245    1.8097    1.4144 C   0  0  0  0  0  0  0  0  0  0  0  0
    2.4366    2.2436    1.9773 C   0  0  0  0  0  0  0  0  0  0  0  0
    3.6388    1.5540    1.7484 C   0  0  0  0  0  0  0  0  0  0  0  0
    4.8491    1.9876    2.3081 C   0  0  0  0  0  0  0  0  0  0  0  0
    6.0372    1.2907    2.0699 C   0  0  0  0  0  0  0  0  0  0  0  0
    6.0504    0.1413    1.2685 C   0  0  0  0  0  0  0  0  0  0  0  0
    7.3008   -0.5925    1.0193 C   0  0  0  0  0  0  0  0  0  0  0  0
    8.4178    0.0514    0.4606 C   0  0  0  0  0  0  0  0  0  0  0  0
    9.6230   -0.6328    0.2171 C   0  0  0  0  0  0  0  0  0  0  0  0
   10.7332    0.0208   -0.3444 C   0  0  0  0  0  0  0  0  0  0  0  0
   11.9400   -0.6466   -0.5913 C   0  0  0  0  0  0  0  0  0  0  0  0
   13.0127    0.0867   -1.1603 C   0  0  0  0  0  0  0  0  0  0  0  0
   14.1533   -0.6904   -1.3544 C   0  0  0  0  0  0  0  0  0  0  0  0
   15.3155   -0.1959   -1.8919 C   0  0  0  0  0  0  0  0  0  0  0  0
   16.5230   -1.4195   -1.9912 S   0  0  0  0  0  0  0  0  0  0  0  0
   15.4798   -2.6091   -1.3119 C   0  0  0  0  0  0  0  0  0  0  0  0
   14.2477   -2.0785   -1.0210 C   0  0  0  0  0  0  0  0  0  0  0  0
   13.2107   -2.8229   -0.4619 C   0  0  0  0  0  0  0  0  0  0  0  0
   12.0359   -2.0559   -0.2534 C   0  0  0  0  0  0  0  0  0  0  0  0
   10.9175   -2.6888    0.3038 C   0  0  0  0  0  0  0  0  0  0  0  0
    9.7165   -1.9999    0.5423 C   0  0  0  0  0  0  0  0  0  0  0  0
    8.6044   -2.6474    1.0997 C   0  0  0  0  0  0  0  0  0  0  0  0
    7.4141   -1.9528    1.3334 C   0  0  0  0  0  0  0  0  0  0  0  0
    4.8347   -0.2896    0.7106 C   0  0  0  0  0  0  0  0  0  0  0  0
    3.6302    0.4010    0.9385 C   0  0  0  0  0  0  0  0  0  0  0  0
    2.4178   -0.0318    0.3755 C   0  0  0  0  0  0  0  0  0  0  0  0
    1.2150    0.6584    0.6034 C   0  0  0  0  0  0  0  0  0  0  0  0
    0.0028    0.2253    0.0400 C   0  0  0  0  0  0  0  0  0  0  0  0
   -1.2001    0.9150    0.2677 C   0  0  0  0  0  0  0  0  0  0  0  0
   -2.4122    0.4818   -0.2963 C   0  0  0  0  0  0  0  0  0  0  0  0
   -3.6149    1.1715   -0.0691 C   0  0  0  0  0  0  0  0  0  0  0  0
   -4.8286    0.7386   -0.6341 C   0  0  0  0  0  0  0  0  0  0  0  0
   -8.4143    0.6711   -0.2080 C   0  0  0  0  0  0  0  0  0  0  0  0
   -9.6278    0.2250   -0.7633 C   0  0  0  0  0  0  0  0  0  0  0  0
  -10.7403   -0.0591    0.0468 C   0  0  0  0  0  0  0  0  0  0  0  0
  -11.9553   -0.5028   -0.4911 C   0  0  0  0  0  0  0  0  0  0  0  0
  -13.0297   -0.7665    0.3967 C   0  0  0  0  0  0  0  0  0  0  0  0
  -14.1787   -1.1996   -0.2622 C   0  0  0  0  0  0  0  0  0  0  0  0
  -15.3442   -1.5147    0.3910 C   0  0  0  0  0  0  0  0  0  0  0  0
  -16.5626   -2.0124   -0.7191 S   0  0  0  0  0  0  0  0  0  0  0  0
  -15.5199   -1.8029   -2.0733 C   0  0  0  0  0  0  0  0  0  0  0  0
  -14.2797   -1.3655   -1.6796 C   0  0  0  0  0  0  0  0  0  0  0  0
  -13.2412   -1.1144   -2.5744 C   0  0  0  0  0  0  0  0  0  0  0  0
  -12.0577   -0.6715   -1.9301 C   0  0  0  0  0  0  0  0  0  0  0  0
  -10.9367   -0.3842   -2.7194 C   0  0  0  0  0  0  0  0  0  0  0  0
   -9.7274    0.0594   -2.1583 C   0  0  0  0  0  0  0  0  0  0  0  0
   -8.6670    0.2244   -4.0410 H   0  0  0  0  0  0  0  0  0  0  0  0
   -6.5725    1.0044   -3.0461 H   0  0  0  0  0  0  0  0  0  0  0  0
   -6.9148    3.1271    0.5934 H   0  0  0  0  0  0  0  0  0  0  0  0
   -4.8197    3.9011    1.5950 H   0  0  0  0  0  0  0  0  0  0  0  0
   -2.3865    3.6454    1.9352 H   0  0  0  0  0  0  0  0  0  0  0  0
    0.0290    3.3891    2.2695 H   0  0  0  0  0  0  0  0  0  0  0  0
    2.4453    3.1336    2.6040 H   0  0  0  0  0  0  0  0  0  0  0  0
    4.8787    2.8733    2.9388 H   0  0  0  0  0  0  0  0  0  0  0  0
    6.9574    1.6480    2.5283 H   0  0  0  0  0  0  0  0  0  0  0  0
    8.3419    1.1064    0.2001 H   0  0  0  0  0  0  0  0  0  0  0  0
   10.6480    1.0779   -0.5933 H   0  0  0  0  0  0  0  0  0  0  0  0
   12.9460    1.1368   -1.4142 H   0  0  0  0  0  0  0  0  0  0  0  0
   15.5352    0.8061   -2.2336 H   0  0  0  0  0  0  0  0  0  0  0  0
   15.8363   -3.6199   -1.1698 H   0  0  0  0  0  0  0  0  0  0  0  0
   13.2866   -3.8731   -0.2114 H   0  0  0  0  0  0  0  0  0  0  0  0
   10.9752   -3.7456    0.5613 H   0  0  0  0  0  0  0  0  0  0  0  0
    8.6544   -3.7021    1.3614 H   0  0  0  0  0  0  0  0  0  0  0  0
    6.5741   -2.4833    1.7777 H   0  0  0  0  0  0  0  0  0  0  0  0
    4.8295   -1.1748    0.0761 H   0  0  0  0  0  0  0  0  0  0  0  0
    2.4106   -0.9216   -0.2517 H   0  0  0  0  0  0  0  0  0  0  0  0
   -0.0046   -0.6646   -0.5871 H   0  0  0  0  0  0  0  0  0  0  0  0
   -2.4203   -0.4079   -0.9235 H   0  0  0  0  0  0  0  0  0  0  0  0
   -4.8382   -0.1568   -1.2540 H   0  0  0  0  0  0  0  0  0  0  0  0
   -8.3341    0.7891    0.8719 H   0  0  0  0  0  0  0  0  0  0  0  0
  -10.6504    0.0712    1.1246 H   0  0  0  0  0  0  0  0  0  0  0  0
  -12.9581   -0.6426    1.4696 H   0  0  0  0  0  0  0  0  0  0  0  0
  -15.5599   -1.4850    1.4501 H   0  0  0  0  0  0  0  0  0  0  0  0
  -15.8826   -2.0137   -3.0698 H   0  0  0  0  0  0  0  0  0  0  0  0
  -13.3223   -1.2416   -3.6462 H   0  0  0  0  0  0  0  0  0  0  0  0
  -10.9993   -0.5070   -3.7999 H   0  0  0  0  0  0  0  0  0  0  0  0
  1  2  4  0
  2  3  4  0
  3  4  1  0
  4  5  4  0
  5  6  4  0
  6  7  4  0
  7  8  4  0
  8  9  4  0
  9 10  4  0
 10 11  4  0
 11 12  4  0
 12 13  4  0
 13 14  4  0
 14 15  4  0
 15 16  4  0
 16 17  1  0
 17 18  4  0
 18 19  4  0
 19 20  4  0
 20 21  4  0
 21 22  4  0
 22 23  4  0
 23 24  4  0
 24 25  4  0
 25 26  4  0
 26 27  4  0
 27 28  4  0
 28 29  4  0
 29 30  4  0
 30 31  4  0
 31 32  4  0
 32 33  4  0
 16 34  4  0
 34 35  4  0
 35 36  4  0
 36 37  4  0
 37 38  4  0
 38 39  4  0
 39 40  4  0
 40 41  4  0
 41 42  4  0
  3 43  4  0
 43 44  4  0
 44 45  4  0
 45 46  4  0
 46 47  4  0
 47 48  4  0
 48 49  4  0
 49 50  4  0
 50 51  4  0
 51 52  4  0
 52 53  4  0
 53 54  4  0
 54 55  4  0
 55 56  4  0
 56  1  4  0
 42  4  4  0
 56 44  4  0
 41  7  4  0
 54 46  4  0
 39  9  4  0
 52 48  4  0
 37 11  4  0
 35 13  4  0
 33 17  4  0
 31 19  4  0
 29 21  4  0
 27 23  4  0
  1 57  1  0
  2 58  1  0
  5 59  1  0
  6 60  1  0
  8 61  1  0
 10 62  1  0
 12 63  1  0
 14 64  1  0
 15 65  1  0
 18 66  1  0
 20 67  1  0
 22 68  1  0
 24 69  1  0
 26 70  1  0
 28 71  1  0
 30 72  1  0
 32 73  1  0
 33 74  1  0
 34 75  1  0
 36 76  1  0
 38 77  1  0
 40 78  1  0
 42 79  1  0
 43 80  1  0
 45 81  1  0
 47 82  1  0
 49 83  1  0
 51 84  1  0
 53 85  1  0
 55 86  1  0
M  END
