
     RDKit          3D

 56 62  0  0  0  0  0  0  0  0999 V2000
    9.8149    2.1685    0.1430 C   0  0  0  0  0  0  0  0  0  0  0  0
    9.5287    1.4562    1.3048 C   0  0  0  0  0  0  0  0  0  0  0  0
    8.3287    0.7480    1.4137 C   0  0  0  0  0  0  0  0  0  0  0  0
    7.3942    0.7405    0.3647 C   0  0  0  0  0  0  0  0  0  0  0  0
    6.1301   -0.0047    0.4799 C   0  0  0  0  0  0  0  0  0  0  0  0
    6.1227   -1.3712    0.7903 C   0  0  0  0  0  0  0  0  0  0  0  0
    4.9217   -2.0792    0.8961 C   0  0  0  0  0  0  0  0  0  0  0  0
    3.6910   -1.4380    0.6953 C   0  0  0  0  0  0  0  0  0  0  0  0
    2.4754   -2.1349    0.7974 C   0  0  0  0  0  0  0  0  0  0  0  0
    1.2426   -1.4909    0.5970 C   0  0  0  0  0  0  0  0  0  0  0  0
    0.0259   -2.1867    0.6986 C   0  0  0  0  0  0  0  0  0  0  0  0
   -1.2067   -1.5424    0.4982 C   0  0  0  0  0  0  0  0  0  0  0  0
   -2.4232   -2.2383    0.5999 C   0  0  0  0  0  0  0  0  0  0  0  0
   -3.6550   -1.5933    0.3993 C   0  0  0  0  0  0  0  0  0  0  0  0
   -4.8699   -2.2861    0.5017 C   0  0  0  0  0  0  0  0  0  0  0  0
   -6.0871   -1.6288    0.2990 C   0  0  0  0  0  0  0  0  0  0  0  0
   -6.1268   -0.2632   -0.0131 C   0  0  0  0  0  0  0  0  0  0  0  0
   -7.4079    0.4284   -0.2297 C   0  0  0  0  0  0  0  0  0  0  0  0
   -7.6538    1.1410   -1.4152 C   0  0  0  0  0  0  0  0  0  0  0  0
   -8.8701    1.7975   -1.6223 C   0  0  0  0  0  0  0  0  0  0  0  0
   -9.8614    1.7530   -0.6454 C   0  0  0  0  0  0  0  0  0  0  0  0
   -9.6380    1.0527    0.5373 C   0  0  0  0  0  0  0  0  0  0  0  0
   -8.4217    0.3957    0.7423 C   0  0  0  0  0  0  0  0  0  0  0  0
   -4.9061    0.4259   -0.1141 C   0  0  0  0  0  0  0  0  0  0  0  0
   -3.6721   -0.2193    0.0882 C   0  0  0  0  0  0  0  0  0  0  0  0
   -2.4554    0.4761   -0.0121 C   0  0  0  0  0  0  0  0  0  0  0  0
   -1.2231   -0.1686    0.1888 C   0  0  0  0  0  0  0  0  0  0  0  0
   -0.0065    0.5270    0.0878 C   0  0  0  0  0  0  0  0  0  0  0  0
    1.2261   -0.1172    0.2877 C   0  0  0  0  0  0  0  0  0  0  0  0
    2.4424    0.5794    0.1855 C   0  0  0  0  0  0  0  0  0  0  0  0
    3.6754   -0.0639    0.3842 C   0  0  0  0  0  0  0  0  0  0  0  0
    4.8935    0.6329    0.2805 C   0  0  0  0  0  0  0  0  0  0  0  0
    7.7027    1.4660   -0.7982 C   0  0  0  0  0  0  0  0  0  0  0  0
    8.9028    2.1736   -0.9092 C   0  0  0  0  0  0  0  0  0  0  0  0
   10.7481    2.7189    0.0576 H   0  0  0  0  0  0  0  0  0  0  0  0
   10.2369    1.4524    2.1292 H   0  0  0  0  0  0  0  0  0  0  0  0
    8.1196    0.2071    2.3345 H   0  0  0  0  0  0  0  0  0  0  0  0
    7.0607   -1.9022    0.9408 H   0  0  0  0  0  0  0  0  0  0  0  0
    4.9580   -3.1398    1.1345 H   0  0  0  0  0  0  0  0  0  0  0  0
    2.4894   -3.1966    1.0373 H   0  0  0  0  0  0  0  0  0  0  0  0
    0.0382   -3.2486    0.9378 H   0  0  0  0  0  0  0  0  0  0  0  0
   -2.4115   -3.3001    0.8395 H   0  0  0  0  0  0  0  0  0  0  0  0
   -4.8810   -3.3477    0.7382 H   0  0  0  0  0  0  0  0  0  0  0  0
   -7.0112   -2.1988    0.3748 H   0  0  0  0  0  0  0  0  0  0  0  0
   -6.8970    1.1785   -2.1963 H   0  0  0  0  0  0  0  0  0  0  0  0
   -9.0422    2.3402   -2.5480 H   0  0  0  0  0  0  0  0  0  0  0  0
  -10.8073    2.2636   -0.8056 H   0  0  0  0  0  0  0  0  0  0  0  0
  -10.4083    1.0183    1.3032 H   0  0  0  0  0  0  0  0  0  0  0  0
   -8.2634   -0.1366    1.6781 H   0  0  0  0  0  0  0  0  0  0  0  0
   -4.9189    1.4904   -0.3439 H   0  0  0  0  0  0  0  0  0  0  0  0
   -2.4683    1.5381   -0.2508 H   0  0  0  0  0  0  0  0  0  0  0  0
   -0.0185    1.5891   -0.1508 H   0  0  0  0  0  0  0  0  0  0  0  0
    2.4292    1.6415   -0.0531 H   0  0  0  0  0  0  0  0  0  0  0  0
    4.8806    1.6974    0.0507 H   0  0  0  0  0  0  0  0  0  0  0  0
    7.0087    1.4736   -1.6365 H   0  0  0  0  0  0  0  0  0  0  0  0
    9.1244    2.7256   -1.8189 H   0  0  0  0  0  0  0  0  0  0  0  0
  1  2  4  0
  2  3  4  0
  3  4  4  0
  4  5  1  0
  5  6  4  0
  6  7  4  0
  7  8  4  0
  8  9  4  0
  9 10  4  0
 10 11  4  0
 11 12  4  0
 12 13  4  0
 13 14  4  0
 14 15  4  0
 15 16  4  0
 16 17  4  0
 17 18  1  0
 18 19  4  0
 19 20  4  0
 20 21  4  0
 21 22  4  0
 22 23  4  0
 17 24  4  0
 24 25  4  0
 25 26  4  0
 26 27  4  0
 27 28  4  0
 28 29  4  0
 29 30  4  0
 30 31  4  0
 31 32  4  0
  4 33  4  0
 33 34  4  0
 34  1  4  0
 32  5  4  0
 31  8  4  0
 29 10  4  0
 27 12  4  0
 25 14  4  0
 23 18  4  0
  1 35  1  0
  2 36  1  0
  3 37  1  0
  6 38  1  0
  7 39  1  0
  9 40  1  0
 11 41  1  0
 13 42  1  0
 15 43  1  0
 16 44  1  0
 19 45  1  0
 20 46  1  0
 21 47  1  0
 22 48  1  0
 23 49  1  0
 24 50  1  0
 26 51  1  0
 28 52  1  0
 30 53  1  0
 32 54  1  0
 33 55  1  0
 34 56  1  0
M  END
