
     RDKit          3D

 84 96  0  0  0  0  0  0  0  0999 V2000
   10.9340   -0.0367    3.1468 C   0  0  0  0  0  0  0  0  0  0  0  0
   11.5744   -1.0937    2.5034 C   0  0  0  0  0  0  0  0  0  0  0  0
   11.0281   -1.6590    1.3420 C   0  0  0  0  0  0  0  0  0  0  0  0
    9.8143   -1.1492    0.8207 C   0  0  0  0  0  0  0  0  0  0  0  0
    9.1702   -0.0785    1.4760 C   0  0  0  0  0  0  0  0  0  0  0  0
    9.7396    0.4677    2.6363 C   0  0  0  0  0  0  0  0  0  0  0  0
    7.9718    0.4199    0.9534 C   0  0  0  0  0  0  0  0  0  0  0  0
    7.3913   -0.1193   -0.2097 C   0  0  0  0  0  0  0  0  0  0  0  0
    6.1311    0.4704   -0.6889 C   0  0  0  0  0  0  0  0  0  0  0  0
    6.1406    1.5187   -1.6165 C   0  0  0  0  0  0  0  0  0  0  0  0
    4.9437    2.0797   -2.0685 C   0  0  0  0  0  0  0  0  0  0  0  0
    3.7079    1.6072   -1.6009 C   0  0  0  0  0  0  0  0  0  0  0  0
    2.4957    2.1611   -2.0450 C   0  0  0  0  0  0  0  0  0  0  0  0
    1.2584    1.6882   -1.5756 C   0  0  0  0  0  0  0  0  0  0  0  0
    0.0454    2.2424   -2.0185 C   0  0  0  0  0  0  0  0  0  0  0  0
   -1.1920    1.7705   -1.5484 C   0  0  0  0  0  0  0  0  0  0  0  0
   -2.4050    2.3256   -1.9906 C   0  0  0  0  0  0  0  0  0  0  0  0
   -3.6413    1.8539   -1.5193 C   0  0  0  0  0  0  0  0  0  0  0  0
   -4.8526    2.4084   -1.9600 C   0  0  0  0  0  0  0  0  0  0  0  0
   -6.0740    1.9297   -1.4797 C   0  0  0  0  0  0  0  0  0  0  0  0
   -6.1136    0.8871   -0.5464 C   0  0  0  0  0  0  0  0  0  0  0  0
   -7.3989    0.3825   -0.0378 C   0  0  0  0  0  0  0  0  0  0  0  0
   -8.0331   -0.6497   -0.7537 C   0  0  0  0  0  0  0  0  0  0  0  0
   -9.2558   -1.1888   -0.3385 C   0  0  0  0  0  0  0  0  0  0  0  0
   -9.8783   -2.2184   -1.0602 C   0  0  0  0  0  0  0  0  0  0  0  0
  -11.0958   -2.7474   -0.6366 C   0  0  0  0  0  0  0  0  0  0  0  0
  -11.7065   -2.2533    0.5142 C   0  0  0  0  0  0  0  0  0  0  0  0
  -11.1068   -1.2245    1.2552 C   0  0  0  0  0  0  0  0  0  0  0  0
   -9.8696   -0.6848    0.8277 C   0  0  0  0  0  0  0  0  0  0  0  0
   -9.2490    0.3559    1.5655 C   0  0  0  0  0  0  0  0  0  0  0  0
   -9.8829    0.8480    2.7347 C   0  0  0  0  0  0  0  0  0  0  0  0
   -9.2804    1.8748    3.4711 C   0  0  0  0  0  0  0  0  0  0  0  0
   -8.0658    2.4149    3.0642 C   0  0  0  0  0  0  0  0  0  0  0  0
   -7.4401    1.9331    1.9150 C   0  0  0  0  0  0  0  0  0  0  0  0
   -8.0086    0.8979    1.1386 C   0  0  0  0  0  0  0  0  0  0  0  0
  -11.1067    0.3023    3.1426 C   0  0  0  0  0  0  0  0  0  0  0  0
  -11.7115   -0.7213    2.4123 C   0  0  0  0  0  0  0  0  0  0  0  0
   -4.9024    0.3289   -0.1087 C   0  0  0  0  0  0  0  0  0  0  0  0
   -3.6658    0.8005   -0.5824 C   0  0  0  0  0  0  0  0  0  0  0  0
   -2.4531    0.2458   -0.1414 C   0  0  0  0  0  0  0  0  0  0  0  0
   -1.2166    0.7181   -0.6128 C   0  0  0  0  0  0  0  0  0  0  0  0
   -0.0038    0.1636   -0.1704 C   0  0  0  0  0  0  0  0  0  0  0  0
    1.2334    0.6357   -0.6400 C   0  0  0  0  0  0  0  0  0  0  0  0
    2.4457    0.0811   -0.1960 C   0  0  0  0  0  0  0  0  0  0  0  0
    3.6829    0.5535   -0.6642 C   0  0  0  0  0  0  0  0  0  0  0  0
    4.8955   -0.0013   -0.2191 C   0  0  0  0  0  0  0  0  0  0  0  0
    8.0308   -1.1996   -0.8768 C   0  0  0  0  0  0  0  0  0  0  0  0
    7.5146   -1.8011   -2.0470 C   0  0  0  0  0  0  0  0  0  0  0  0
    8.1690   -2.8589   -2.6769 C   0  0  0  0  0  0  0  0  0  0  0  0
    9.3607   -3.3474   -2.1538 C   0  0  0  0  0  0  0  0  0  0  0  0
    9.9109   -2.7854   -0.9958 C   0  0  0  0  0  0  0  0  0  0  0  0
    9.2474   -1.7096   -0.3527 C   0  0  0  0  0  0  0  0  0  0  0  0
   11.1112   -3.2764   -0.4664 C   0  0  0  0  0  0  0  0  0  0  0  0
   11.6632   -2.7205    0.6881 C   0  0  0  0  0  0  0  0  0  0  0  0
   11.3658    0.3942    4.0463 H   0  0  0  0  0  0  0  0  0  0  0  0
   12.5060   -1.4741    2.9165 H   0  0  0  0  0  0  0  0  0  0  0  0
    9.2544    1.2934    3.1523 H   0  0  0  0  0  0  0  0  0  0  0  0
    7.4710    1.2476    1.4548 H   0  0  0  0  0  0  0  0  0  0  0  0
    7.0860    1.9028   -1.9948 H   0  0  0  0  0  0  0  0  0  0  0  0
    4.9866    2.8916   -2.7911 H   0  0  0  0  0  0  0  0  0  0  0  0
    2.5165    2.9745   -2.7680 H   0  0  0  0  0  0  0  0  0  0  0  0
    0.0647    3.0560   -2.7415 H   0  0  0  0  0  0  0  0  0  0  0  0
   -2.3872    3.1392   -2.7135 H   0  0  0  0  0  0  0  0  0  0  0  0
   -4.8563    3.2214   -2.6828 H   0  0  0  0  0  0  0  0  0  0  0  0
   -6.9996    2.3785   -1.8348 H   0  0  0  0  0  0  0  0  0  0  0  0
   -7.5543   -1.0359   -1.6531 H   0  0  0  0  0  0  0  0  0  0  0  0
   -9.4168   -2.6173   -1.9610 H   0  0  0  0  0  0  0  0  0  0  0  0
  -11.5688   -3.5450   -1.2034 H   0  0  0  0  0  0  0  0  0  0  0  0
  -12.6567   -2.6786    0.8295 H   0  0  0  0  0  0  0  0  0  0  0  0
   -9.7541    2.2631    4.3699 H   0  0  0  0  0  0  0  0  0  0  0  0
   -7.6030    3.2122    3.6399 H   0  0  0  0  0  0  0  0  0  0  0  0
   -6.4904    2.3814    1.6281 H   0  0  0  0  0  0  0  0  0  0  0  0
  -11.6036    0.6707    4.0375 H   0  0  0  0  0  0  0  0  0  0  0  0
  -12.6618   -1.1219    2.7578 H   0  0  0  0  0  0  0  0  0  0  0  0
   -4.9290   -0.4832    0.6165 H   0  0  0  0  0  0  0  0  0  0  0  0
   -2.4729   -0.5676    0.5820 H   0  0  0  0  0  0  0  0  0  0  0  0
   -0.0234   -0.6498    0.5530 H   0  0  0  0  0  0  0  0  0  0  0  0
    2.4274   -0.7323    0.5275 H   0  0  0  0  0  0  0  0  0  0  0  0
    4.8840   -0.8165    0.5032 H   0  0  0  0  0  0  0  0  0  0  0  0
    6.5834   -1.4469   -2.4858 H   0  0  0  0  0  0  0  0  0  0  0  0
    7.7463   -3.3000   -3.5758 H   0  0  0  0  0  0  0  0  0  0  0  0
    9.8573   -4.1728   -2.6587 H   0  0  0  0  0  0  0  0  0  0  0  0
   11.6305   -4.1008   -0.9503 H   0  0  0  0  0  0  0  0  0  0  0  0
   12.5965   -3.1263    1.0718 H   0  0  0  0  0  0  0  0  0  0  0  0
  1  2  4  0
  2  3  4  0
  3  4  4  0
  4  5  4  0
  5  6  4  0
  5  7  4  0
  7  8  4  0
  8  9  1  0
  9 10  4  0
 10 11  4  0
 11 12  4  0
 12 13  4  0
 13 14  4  0
 14 15  4  0
 15 16  4  0
 16 17  4  0
 17 18  4  0
 18 19  4  0
 19 20  4  0
 20 21  4  0
 21 22  1  0
 22 23  4  0
 23 24  4  0
 24 25  4  0
 25 26  4  0
 26 27  4  0
 27 28  4  0
 28 29  4  0
 29 30  4  0
 30 31  4  0
 31 32  4  0
 32 33  4  0
 33 34  4  0
 34 35  4  0
 31 36  4  0
 36 37  4  0
 21 38  4  0
 38 39  4  0
 39 40  4  0
 40 41  4  0
 41 42  4  0
 42 43  4  0
 43 44  4  0
 44 45  4  0
 45 46  4  0
  8 47  4  0
 47 48  4  0
 48 49  4  0
 49 50  4  0
 50 51  4  0
 51 52  4  0
 51 53  4  0
 53 54  4  0
  6  1  4  0
 46  9  4  0
 52 47  4  0
 54  3  4  0
 52  4  4  0
 45 12  4  0
 43 14  4  0
 41 16  4  0
 39 18  4  0
 35 22  4  0
 29 24  4  0
 35 30  4  0
 37 28  4  0
  1 55  1  0
  2 56  1  0
  6 57  1  0
  7 58  1  0
 10 59  1  0
 11 60  1  0
 13 61  1  0
 15 62  1  0
 17 63  1  0
 19 64  1  0
 20 65  1  0
 23 66  1  0
 25 67  1  0
 26 68  1  0
 27 69  1  0
 32 70  1  0
 33 71  1  0
 34 72  1  0
 36 73  1  0
 37 74  1  0
 38 75  1  0
 40 76  1  0
 42 77  1  0
 44 78  1  0
 46 79  1  0
 48 80  1  0
 49 81  1  0
 50 82  1  0
 53 83  1  0
 54 84  1  0
M  END
