
     RDKit          3D

 84 96  0  0  0  0  0  0  0  0999 V2000
  -13.4797    3.1346   -0.5514 C   0  0  0  0  0  0  0  0  0  0  0  0
  -12.4998    3.6807    0.2769 C   0  0  0  0  0  0  0  0  0  0  0  0
  -11.2856    3.0101    0.4855 C   0  0  0  0  0  0  0  0  0  0  0  0
  -11.0615    1.7688   -0.1536 C   0  0  0  0  0  0  0  0  0  0  0  0
  -12.0558    1.2158   -0.9933 C   0  0  0  0  0  0  0  0  0  0  0  0
  -13.2595    1.9107   -1.1824 C   0  0  0  0  0  0  0  0  0  0  0  0
  -11.8162   -0.0151   -1.6184 C   0  0  0  0  0  0  0  0  0  0  0  0
  -10.6120   -0.6949   -1.4186 C   0  0  0  0  0  0  0  0  0  0  0  0
   -9.6161   -0.1619   -0.5886 C   0  0  0  0  0  0  0  0  0  0  0  0
   -8.4010   -0.8338   -0.3774 C   0  0  0  0  0  0  0  0  0  0  0  0
   -7.4007   -0.3008    0.4512 C   0  0  0  0  0  0  0  0  0  0  0  0
   -6.1335   -1.0174    0.6622 C   0  0  0  0  0  0  0  0  0  0  0  0
   -6.1199   -2.3253    1.1645 C   0  0  0  0  0  0  0  0  0  0  0  0
   -4.9151   -3.0042    1.3688 C   0  0  0  0  0  0  0  0  0  0  0  0
   -3.6880   -2.3925    1.0740 C   0  0  0  0  0  0  0  0  0  0  0  0
   -2.4683   -3.0603    1.2739 C   0  0  0  0  0  0  0  0  0  0  0  0
   -1.2398   -2.4460    0.9772 C   0  0  0  0  0  0  0  0  0  0  0  0
   -0.0192   -3.1126    1.1772 C   0  0  0  0  0  0  0  0  0  0  0  0
    1.2094   -2.4987    0.8802 C   0  0  0  0  0  0  0  0  0  0  0  0
    2.4297   -3.1660    1.0798 C   0  0  0  0  0  0  0  0  0  0  0  0
    3.6574   -2.5516    0.7825 C   0  0  0  0  0  0  0  0  0  0  0  0
    4.8758   -3.2172    0.9800 C   0  0  0  0  0  0  0  0  0  0  0  0
    6.0891   -2.5918    0.6784 C   0  0  0  0  0  0  0  0  0  0  0  0
    6.1201   -1.2852    0.1737 C   0  0  0  0  0  0  0  0  0  0  0  0
    7.3963   -0.6255   -0.1420 C   0  0  0  0  0  0  0  0  0  0  0  0
    8.2979   -1.1995   -1.0523 C   0  0  0  0  0  0  0  0  0  0  0  0
    9.5193   -0.5812   -1.3661 C   0  0  0  0  0  0  0  0  0  0  0  0
    9.8515    0.6460   -0.7516 C   0  0  0  0  0  0  0  0  0  0  0  0
    8.9580    1.2381    0.1677 C   0  0  0  0  0  0  0  0  0  0  0  0
    7.7439    0.5950    0.4586 C   0  0  0  0  0  0  0  0  0  0  0  0
    9.3038    2.4552    0.7709 C   0  0  0  0  0  0  0  0  0  0  0  0
   10.5151    3.0835    0.4708 C   0  0  0  0  0  0  0  0  0  0  0  0
   11.4126    2.5109   -0.4403 C   0  0  0  0  0  0  0  0  0  0  0  0
   12.6323    3.1290   -0.7533 C   0  0  0  0  0  0  0  0  0  0  0  0
   13.5127    2.5433   -1.6625 C   0  0  0  0  0  0  0  0  0  0  0  0
   13.1858    1.3319   -2.2711 C   0  0  0  0  0  0  0  0  0  0  0  0
   11.9736    0.6895   -1.9788 C   0  0  0  0  0  0  0  0  0  0  0  0
   11.0802    1.2826   -1.0571 C   0  0  0  0  0  0  0  0  0  0  0  0
   11.6275   -0.5278   -2.5803 C   0  0  0  0  0  0  0  0  0  0  0  0
   10.4161   -1.1548   -2.2779 C   0  0  0  0  0  0  0  0  0  0  0  0
    4.8967   -0.6223   -0.0224 C   0  0  0  0  0  0  0  0  0  0  0  0
    3.6667   -1.2375    0.2741 C   0  0  0  0  0  0  0  0  0  0  0  0
    2.4461   -0.5714    0.0737 C   0  0  0  0  0  0  0  0  0  0  0  0
    1.2177   -1.1858    0.3707 C   0  0  0  0  0  0  0  0  0  0  0  0
   -0.0030   -0.5193    0.1706 C   0  0  0  0  0  0  0  0  0  0  0  0
   -1.2314   -1.1331    0.4678 C   0  0  0  0  0  0  0  0  0  0  0  0
   -2.4516   -0.4656    0.2679 C   0  0  0  0  0  0  0  0  0  0  0  0
   -3.6802   -1.0783    0.5659 C   0  0  0  0  0  0  0  0  0  0  0  0
   -4.9017   -0.4091    0.3675 C   0  0  0  0  0  0  0  0  0  0  0  0
   -7.6416    0.9341    1.0744 C   0  0  0  0  0  0  0  0  0  0  0  0
   -8.8464    1.6305    0.8852 C   0  0  0  0  0  0  0  0  0  0  0  0
   -9.8403    1.0786    0.0478 C   0  0  0  0  0  0  0  0  0  0  0  0
   -9.0851    2.8616    1.5113 C   0  0  0  0  0  0  0  0  0  0  0  0
  -10.2890    3.5428    1.3140 C   0  0  0  0  0  0  0  0  0  0  0  0
  -14.4166    3.6636   -0.7054 H   0  0  0  0  0  0  0  0  0  0  0  0
  -12.6916    4.6363    0.7599 H   0  0  0  0  0  0  0  0  0  0  0  0
  -14.0365    1.5022   -1.8246 H   0  0  0  0  0  0  0  0  0  0  0  0
  -12.5674   -0.4577   -2.2689 H   0  0  0  0  0  0  0  0  0  0  0  0
  -10.4591   -1.6483   -1.9197 H   0  0  0  0  0  0  0  0  0  0  0  0
   -8.2234   -1.7857   -0.8761 H   0  0  0  0  0  0  0  0  0  0  0  0
   -7.0541   -2.8248    1.4144 H   0  0  0  0  0  0  0  0  0  0  0  0
   -4.9456   -4.0168    1.7646 H   0  0  0  0  0  0  0  0  0  0  0  0
   -2.4762   -4.0753    1.6671 H   0  0  0  0  0  0  0  0  0  0  0  0
   -0.0255   -4.1275    1.5709 H   0  0  0  0  0  0  0  0  0  0  0  0
    2.4246   -4.1810    1.4729 H   0  0  0  0  0  0  0  0  0  0  0  0
    4.8928   -4.2308    1.3741 H   0  0  0  0  0  0  0  0  0  0  0  0
    7.0174   -3.1324    0.8533 H   0  0  0  0  0  0  0  0  0  0  0  0
    8.0364   -2.1406   -1.5340 H   0  0  0  0  0  0  0  0  0  0  0  0
    7.0589    1.0460    1.1754 H   0  0  0  0  0  0  0  0  0  0  0  0
    8.6307    2.9275    1.4832 H   0  0  0  0  0  0  0  0  0  0  0  0
   10.7515    4.0271    0.9574 H   0  0  0  0  0  0  0  0  0  0  0  0
   12.9060    4.0740   -0.2895 H   0  0  0  0  0  0  0  0  0  0  0  0
   14.4550    3.0317   -1.8971 H   0  0  0  0  0  0  0  0  0  0  0  0
   13.8860    0.8915   -2.9773 H   0  0  0  0  0  0  0  0  0  0  0  0
   12.2998   -1.0009   -3.2925 H   0  0  0  0  0  0  0  0  0  0  0  0
   10.1789   -2.0988   -2.7638 H   0  0  0  0  0  0  0  0  0  0  0  0
    4.9035    0.3896   -0.4252 H   0  0  0  0  0  0  0  0  0  0  0  0
    2.4532    0.4432   -0.3209 H   0  0  0  0  0  0  0  0  0  0  0  0
    0.0029    0.4955   -0.2236 H   0  0  0  0  0  0  0  0  0  0  0  0
   -2.4456    0.5490   -0.1267 H   0  0  0  0  0  0  0  0  0  0  0  0
   -4.8960    0.6031   -0.0347 H   0  0  0  0  0  0  0  0  0  0  0  0
   -6.8792    1.3540    1.7291 H   0  0  0  0  0  0  0  0  0  0  0  0
   -8.3331    3.3034    2.1616 H   0  0  0  0  0  0  0  0  0  0  0  0
  -10.4413    4.4960    1.8155 H   0  0  0  0  0  0  0  0  0  0  0  0
  1  2  4  0
  2  3  4  0
  3  4  4  0
  4  5  4  0
  5  6  4  0
  5  7  4  0
  7  8  4  0
  8  9  4  0
  9 10  4  0
 10 11  4  0
 11 12  1  0
 12 13  4  0
 13 14  4  0
 14 15  4  0
 15 16  4  0
 16 17  4  0
 17 18  4  0
 18 19  4  0
 19 20  4  0
 20 21  4  0
 21 22  4  0
 22 23  4  0
 23 24  4  0
 24 25  1  0
 25 26  4  0
 26 27  4  0
 27 28  4  0
 28 29  4  0
 29 30  4  0
 29 31  4  0
 31 32  4  0
 32 33  4  0
 33 34  4  0
 34 35  4  0
 35 36  4  0
 36 37  4  0
 37 38  4  0
 37 39  4  0
 39 40  4  0
 24 41  4  0
 41 42  4  0
 42 43  4  0
 43 44  4  0
 44 45  4  0
 45 46  4  0
 46 47  4  0
 47 48  4  0
 48 49  4  0
 11 50  4  0
 50 51  4  0
 51 52  4  0
 51 53  4  0
 53 54  4  0
  6  1  4  0
 52  9  4  0
 54  3  4  0
 52  4  4  0
 49 12  4  0
 48 15  4  0
 46 17  4  0
 44 19  4  0
 42 21  4  0
 30 25  4  0
 38 33  4  0
 40 27  4  0
 38 28  4  0
  1 55  1  0
  2 56  1  0
  6 57  1  0
  7 58  1  0
  8 59  1  0
 10 60  1  0
 13 61  1  0
 14 62  1  0
 16 63  1  0
 18 64  1  0
 20 65  1  0
 22 66  1  0
 23 67  1  0
 26 68  1  0
 30 69  1  0
 31 70  1  0
 32 71  1  0
 34 72  1  0
 35 73  1  0
 36 74  1  0
 39 75  1  0
 40 76  1  0
 41 77  1  0
 43 78  1  0
 45 79  1  0
 47 80  1  0
 49 81  1  0
 50 82  1  0
 53 83  1  0
 54 84  1  0
M  END
