
     RDKit          3D

116132  0  0  0  0  0  0  0  0999 V2000
   -8.2582    6.5713   -3.4389 C   0  0  0  0  0  0  0  0  0  0  0  0
   -7.1157    5.9497   -3.9327 C   0  0  0  0  0  0  0  0  0  0  0  0
   -6.6968    4.7330   -3.3925 C   0  0  0  0  0  0  0  0  0  0  0  0
   -7.4162    4.1230   -2.3511 C   0  0  0  0  0  0  0  0  0  0  0  0
   -7.0107    2.8973   -1.7948 C   0  0  0  0  0  0  0  0  0  0  0  0
   -7.7182    2.2606   -0.7430 C   0  0  0  0  0  0  0  0  0  0  0  0
   -8.8720    2.9097   -0.2577 C   0  0  0  0  0  0  0  0  0  0  0  0
   -9.2823    4.1361   -0.8115 C   0  0  0  0  0  0  0  0  0  0  0  0
   -8.5706    4.7517   -1.8515 C   0  0  0  0  0  0  0  0  0  0  0  0
   -8.9819    5.9765   -2.4043 C   0  0  0  0  0  0  0  0  0  0  0  0
   -9.6116    2.3286    0.7798 C   0  0  0  0  0  0  0  0  0  0  0  0
   -9.2422    1.1095    1.3621 C   0  0  0  0  0  0  0  0  0  0  0  0
  -10.0172    0.5649    2.4019 C   0  0  0  0  0  0  0  0  0  0  0  0
   -9.6834   -0.6529    3.0131 C   0  0  0  0  0  0  0  0  0  0  0  0
  -10.4606   -1.1947    4.0517 C   0  0  0  0  0  0  0  0  0  0  0  0
  -10.1210   -2.4142    4.6604 C   0  0  0  0  0  0  0  0  0  0  0  0
  -10.8960   -2.9576    5.6985 C   0  0  0  0  0  0  0  0  0  0  0  0
  -10.5446   -4.1707    6.2929 C   0  0  0  0  0  0  0  0  0  0  0  0
   -9.4144   -4.8556    5.8574 C   0  0  0  0  0  0  0  0  0  0  0  0
   -8.6342   -4.3282    4.8271 C   0  0  0  0  0  0  0  0  0  0  0  0
   -8.9752   -3.1087    4.2188 C   0  0  0  0  0  0  0  0  0  0  0  0
   -8.2012   -2.5644    3.1806 C   0  0  0  0  0  0  0  0  0  0  0  0
   -8.5432   -1.3438    2.5730 C   0  0  0  0  0  0  0  0  0  0  0  0
   -7.7708   -0.7957    1.5330 C   0  0  0  0  0  0  0  0  0  0  0  0
   -8.0939    0.4331    0.9023 C   0  0  0  0  0  0  0  0  0  0  0  0
   -7.3264    1.0121   -0.1594 C   0  0  0  0  0  0  0  0  0  0  0  0
   -6.1208    0.3166   -0.6607 C   0  0  0  0  0  0  0  0  0  0  0  0
   -6.2162   -0.6194   -1.6980 C   0  0  0  0  0  0  0  0  0  0  0  0
   -5.0754   -1.2653   -2.1796 C   0  0  0  0  0  0  0  0  0  0  0  0
   -3.8114   -0.9897   -1.6360 C   0  0  0  0  0  0  0  0  0  0  0  0
   -2.6543   -1.6271   -2.1135 C   0  0  0  0  0  0  0  0  0  0  0  0
   -1.3876   -1.3469   -1.5737 C   0  0  0  0  0  0  0  0  0  0  0  0
   -0.2293   -1.9811   -2.0542 C   0  0  0  0  0  0  0  0  0  0  0  0
    1.0380   -1.6991   -1.5165 C   0  0  0  0  0  0  0  0  0  0  0  0
    2.1964   -2.3327   -1.9974 C   0  0  0  0  0  0  0  0  0  0  0  0
    3.4630   -2.0501   -1.4597 C   0  0  0  0  0  0  0  0  0  0  0  0
    4.6196   -2.6842   -1.9388 C   0  0  0  0  0  0  0  0  0  0  0  0
    5.8717   -2.3942   -1.3919 C   0  0  0  0  0  0  0  0  0  0  0  0
    5.9978   -1.4628   -0.3536 C   0  0  0  0  0  0  0  0  0  0  0  0
    7.3224   -1.1619    0.2328 C   0  0  0  0  0  0  0  0  0  0  0  0
    8.1267   -0.1149   -0.3232 C   0  0  0  0  0  0  0  0  0  0  0  0
    7.7323    0.6863   -1.4256 C   0  0  0  0  0  0  0  0  0  0  0  0
    8.5425    1.7084   -1.9526 C   0  0  0  0  0  0  0  0  0  0  0  0
    8.1276    2.4895   -3.0454 C   0  0  0  0  0  0  0  0  0  0  0  0
    8.9403    3.5090   -3.5689 C   0  0  0  0  0  0  0  0  0  0  0  0
    8.5270    4.2908   -4.6607 C   0  0  0  0  0  0  0  0  0  0  0  0
    9.3472    5.2997   -5.1685 C   0  0  0  0  0  0  0  0  0  0  0  0
   10.5906    5.5398   -4.5921 C   0  0  0  0  0  0  0  0  0  0  0  0
   11.0154    4.7716   -3.5069 C   0  0  0  0  0  0  0  0  0  0  0  0
   10.2009    3.7531   -2.9844 C   0  0  0  0  0  0  0  0  0  0  0  0
   10.6129    2.9716   -1.8924 C   0  0  0  0  0  0  0  0  0  0  0  0
    9.7966    1.9529   -1.3709 C   0  0  0  0  0  0  0  0  0  0  0  0
   10.2029    1.1710   -0.2796 C   0  0  0  0  0  0  0  0  0  0  0  0
    9.3891    0.1512    0.2454 C   0  0  0  0  0  0  0  0  0  0  0  0
    9.8336   -0.6038    1.3380 C   0  0  0  0  0  0  0  0  0  0  0  0
    9.0592   -1.6282    1.8962 C   0  0  0  0  0  0  0  0  0  0  0  0
    9.5478   -2.3580    2.9952 C   0  0  0  0  0  0  0  0  0  0  0  0
    8.8043   -3.3906    3.5849 C   0  0  0  0  0  0  0  0  0  0  0  0
    9.2926   -4.1187    4.6834 C   0  0  0  0  0  0  0  0  0  0  0  0
    8.5343   -5.1414    5.2550 C   0  0  0  0  0  0  0  0  0  0  0  0
    7.2804   -5.4485    4.7362 C   0  0  0  0  0  0  0  0  0  0  0  0
    6.7846   -4.7335    3.6453 C   0  0  0  0  0  0  0  0  0  0  0  0
    7.5372   -3.7016    3.0599 C   0  0  0  0  0  0  0  0  0  0  0  0
    7.0541   -2.9703    1.9608 C   0  0  0  0  0  0  0  0  0  0  0  0
    7.7919   -1.9227    1.3524 C   0  0  0  0  0  0  0  0  0  0  0  0
    4.8409   -0.8264    0.1248 C   0  0  0  0  0  0  0  0  0  0  0  0
    3.5744   -1.1095   -0.4149 C   0  0  0  0  0  0  0  0  0  0  0  0
    2.4159   -0.4769    0.0653 C   0  0  0  0  0  0  0  0  0  0  0  0
    1.1493   -0.7602   -0.4727 C   0  0  0  0  0  0  0  0  0  0  0  0
   -0.0090   -0.1266    0.0079 C   0  0  0  0  0  0  0  0  0  0  0  0
   -1.2762   -0.4085   -0.5294 C   0  0  0  0  0  0  0  0  0  0  0  0
   -2.4338    0.2268   -0.0489 C   0  0  0  0  0  0  0  0  0  0  0  0
   -3.7000   -0.0507   -0.5898 C   0  0  0  0  0  0  0  0  0  0  0  0
   -4.8567    0.5899   -0.1134 C   0  0  0  0  0  0  0  0  0  0  0  0
   -8.5872    7.5184   -3.8580 H   0  0  0  0  0  0  0  0  0  0  0  0
   -6.5492    6.4094   -4.7383 H   0  0  0  0  0  0  0  0  0  0  0  0
   -5.8012    4.2607   -3.7907 H   0  0  0  0  0  0  0  0  0  0  0  0
   -6.1143    2.4275   -2.1974 H   0  0  0  0  0  0  0  0  0  0  0  0
  -10.1761    4.6235   -0.4251 H   0  0  0  0  0  0  0  0  0  0  0  0
   -9.8726    6.4768   -2.0311 H   0  0  0  0  0  0  0  0  0  0  0  0
  -10.5013    2.8405    1.1451 H   0  0  0  0  0  0  0  0  0  0  0  0
  -10.9015    1.1006    2.7443 H   0  0  0  0  0  0  0  0  0  0  0  0
  -11.3444   -0.6584    4.3924 H   0  0  0  0  0  0  0  0  0  0  0  0
  -11.7825   -2.4365    6.0527 H   0  0  0  0  0  0  0  0  0  0  0  0
  -11.1535   -4.5791    7.0952 H   0  0  0  0  0  0  0  0  0  0  0  0
   -9.1382   -5.8001    6.3188 H   0  0  0  0  0  0  0  0  0  0  0  0
   -7.7538   -4.8773    4.5005 H   0  0  0  0  0  0  0  0  0  0  0  0
   -7.3167   -3.0993    2.8392 H   0  0  0  0  0  0  0  0  0  0  0  0
   -6.8899   -1.3476    1.2074 H   0  0  0  0  0  0  0  0  0  0  0  0
   -7.1849   -0.8468   -2.1391 H   0  0  0  0  0  0  0  0  0  0  0  0
   -5.1832   -1.9847   -2.9882 H   0  0  0  0  0  0  0  0  0  0  0  0
   -2.7417   -2.3518   -2.9211 H   0  0  0  0  0  0  0  0  0  0  0  0
   -0.3159   -2.7058   -2.8621 H   0  0  0  0  0  0  0  0  0  0  0  0
    2.1115   -3.0591   -2.8037 H   0  0  0  0  0  0  0  0  0  0  0  0
    4.5557   -3.4138   -2.7432 H   0  0  0  0  0  0  0  0  0  0  0  0
    6.7539   -2.9008   -1.7789 H   0  0  0  0  0  0  0  0  0  0  0  0
    6.7632    0.5130   -1.8918 H   0  0  0  0  0  0  0  0  0  0  0  0
    7.1545    2.3001   -3.4956 H   0  0  0  0  0  0  0  0  0  0  0  0
    7.5587    4.1173   -5.1251 H   0  0  0  0  0  0  0  0  0  0  0  0
    9.0143    5.8962   -6.0138 H   0  0  0  0  0  0  0  0  0  0  0  0
   11.2315    6.3243   -4.9860 H   0  0  0  0  0  0  0  0  0  0  0  0
   11.9907    4.9739   -3.0702 H   0  0  0  0  0  0  0  0  0  0  0  0
   11.5852    3.1595   -1.4408 H   0  0  0  0  0  0  0  0  0  0  0  0
   11.1757    1.3618    0.1714 H   0  0  0  0  0  0  0  0  0  0  0  0
   10.8112   -0.3869    1.7674 H   0  0  0  0  0  0  0  0  0  0  0  0
   10.5287   -2.1173    3.4021 H   0  0  0  0  0  0  0  0  0  0  0  0
   10.2703   -3.8923    5.1027 H   0  0  0  0  0  0  0  0  0  0  0  0
    8.9231   -5.6965    6.1046 H   0  0  0  0  0  0  0  0  0  0  0  0
    6.6861   -6.2435    5.1786 H   0  0  0  0  0  0  0  0  0  0  0  0
    5.8021   -4.9870    3.2528 H   0  0  0  0  0  0  0  0  0  0  0  0
    6.0705   -3.2288    1.5709 H   0  0  0  0  0  0  0  0  0  0  0  0
    4.9351   -0.1023    0.9331 H   0  0  0  0  0  0  0  0  0  0  0  0
    2.5028    0.2483    0.8728 H   0  0  0  0  0  0  0  0  0  0  0  0
    0.0781    0.6005    0.8136 H   0  0  0  0  0  0  0  0  0  0  0  0
   -2.3480    0.9521    0.7585 H   0  0  0  0  0  0  0  0  0  0  0  0
   -4.7794    1.3180    0.6931 H   0  0  0  0  0  0  0  0  0  0  0  0
  1  2  4  0
  2  3  4  0
  3  4  4  0
  4  5  4  0
  5  6  4  0
  6  7  4  0
  7  8  4  0
  8  9  4  0
  9 10  4  0
  7 11  4  0
 11 12  4  0
 12 13  4  0
 13 14  4  0
 14 15  4  0
 15 16  4  0
 16 17  4  0
 17 18  4  0
 18 19  4  0
 19 20  4  0
 20 21  4  0
 21 22  4  0
 22 23  4  0
 23 24  4  0
 24 25  4  0
 25 26  4  0
 26 27  1  0
 27 28  4  0
 28 29  4  0
 29 30  4  0
 30 31  4  0
 31 32  4  0
 32 33  4  0
 33 34  4  0
 34 35  4  0
 35 36  4  0
 36 37  4  0
 37 38  4  0
 38 39  4  0
 39 40  1  0
 40 41  4  0
 41 42  4  0
 42 43  4  0
 43 44  4  0
 44 45  4  0
 45 46  4  0
 46 47  4  0
 47 48  4  0
 48 49  4  0
 49 50  4  0
 50 51  4  0
 51 52  4  0
 52 53  4  0
 53 54  4  0
 54 55  4  0
 55 56  4  0
 56 57  4  0
 57 58  4  0
 58 59  4  0
 59 60  4  0
 60 61  4  0
 61 62  4  0
 62 63  4  0
 63 64  4  0
 64 65  4  0
 39 66  4  0
 66 67  4  0
 67 68  4  0
 68 69  4  0
 69 70  4  0
 70 71  4  0
 71 72  4  0
 72 73  4  0
 73 74  4  0
 10  1  4  0
 25 12  4  0
 74 27  4  0
  9  4  4  0
 23 14  4  0
 73 30  4  0
 26  6  4  0
 71 32  4  0
 21 16  4  0
 69 34  4  0
 67 36  4  0
 65 40  4  0
 54 41  4  0
 65 56  4  0
 52 43  4  0
 63 58  4  0
 50 45  4  0
  1 75  1  0
  2 76  1  0
  3 77  1  0
  5 78  1  0
  8 79  1  0
 10 80  1  0
 11 81  1  0
 13 82  1  0
 15 83  1  0
 17 84  1  0
 18 85  1  0
 19 86  1  0
 20 87  1  0
 22 88  1  0
 24 89  1  0
 28 90  1  0
 29 91  1  0
 31 92  1  0
 33 93  1  0
 35 94  1  0
 37 95  1  0
 38 96  1  0
 42 97  1  0
 44 98  1  0
 46 99  1  0
 47100  1  0
 48101  1  0
 49102  1  0
 51103  1  0
 53104  1  0
 55105  1  0
 57106  1  0
 59107  1  0
 60108  1  0
 61109  1  0
 62110  1  0
 64111  1  0
 66112  1  0
 68113  1  0
 70114  1  0
 72115  1  0
 74116  1  0
M  END
