
     RDKit          3D

116132  0  0  0  0  0  0  0  0999 V2000
  -16.1110   -1.7944   -3.8544 C   0  0  0  0  0  0  0  0  0  0  0  0
  -15.7127   -2.0282   -2.5374 C   0  0  0  0  0  0  0  0  0  0  0  0
  -14.4634   -1.5828   -2.0744 C   0  0  0  0  0  0  0  0  0  0  0  0
  -14.0476   -1.8101   -0.7519 C   0  0  0  0  0  0  0  0  0  0  0  0
  -12.7978   -1.3643   -0.2894 C   0  0  0  0  0  0  0  0  0  0  0  0
  -12.3820   -1.5918    1.0334 C   0  0  0  0  0  0  0  0  0  0  0  0
  -11.1324   -1.1461    1.4969 C   0  0  0  0  0  0  0  0  0  0  0  0
  -10.7157   -1.3729    2.8196 C   0  0  0  0  0  0  0  0  0  0  0  0
   -9.4657   -0.9262    3.2821 C   0  0  0  0  0  0  0  0  0  0  0  0
   -9.0466   -1.1509    4.6028 C   0  0  0  0  0  0  0  0  0  0  0  0
   -7.7974   -0.7051    5.0679 C   0  0  0  0  0  0  0  0  0  0  0  0
   -7.4125   -0.9480    6.3951 C   0  0  0  0  0  0  0  0  0  0  0  0
   -6.1802   -0.5140    6.8743 C   0  0  0  0  0  0  0  0  0  0  0  0
   -5.3140    0.1705    6.0290 C   0  0  0  0  0  0  0  0  0  0  0  0
   -5.6640    0.4327    4.6919 C   0  0  0  0  0  0  0  0  0  0  0  0
   -4.6980    1.1594    3.8532 C   0  0  0  0  0  0  0  0  0  0  0  0
   -4.7076    2.5582    3.8000 C   0  0  0  0  0  0  0  0  0  0  0  0
   -3.7879    3.2463    3.0049 C   0  0  0  0  0  0  0  0  0  0  0  0
   -2.8354    2.5510    2.2445 C   0  0  0  0  0  0  0  0  0  0  0  0
   -1.9044    3.2283    1.4399 C   0  0  0  0  0  0  0  0  0  0  0  0
   -0.9509    2.5318    0.6782 C   0  0  0  0  0  0  0  0  0  0  0  0
   -0.0192    3.2087   -0.1269 C   0  0  0  0  0  0  0  0  0  0  0  0
    0.9344    2.5129   -0.8887 C   0  0  0  0  0  0  0  0  0  0  0  0
    1.8663    3.1903   -1.6933 C   0  0  0  0  0  0  0  0  0  0  0  0
    2.8194    2.4939   -2.4545 C   0  0  0  0  0  0  0  0  0  0  0  0
    3.7510    3.1699   -3.2572 C   0  0  0  0  0  0  0  0  0  0  0  0
    4.6931    2.4626   -4.0079 C   0  0  0  0  0  0  0  0  0  0  0  0
    4.7277    1.0638   -3.9731 C   0  0  0  0  0  0  0  0  0  0  0  0
    5.7207    0.3175   -4.7614 C   0  0  0  0  0  0  0  0  0  0  0  0
    6.9783   -0.0829   -4.2225 C   0  0  0  0  0  0  0  0  0  0  0  0
    7.3859    0.1994   -2.8966 C   0  0  0  0  0  0  0  0  0  0  0  0
    8.6320   -0.2066   -2.3877 C   0  0  0  0  0  0  0  0  0  0  0  0
    9.0165    0.0830   -1.0673 C   0  0  0  0  0  0  0  0  0  0  0  0
   10.2624   -0.3227   -0.5600 C   0  0  0  0  0  0  0  0  0  0  0  0
   10.6471   -0.0336    0.7602 C   0  0  0  0  0  0  0  0  0  0  0  0
   11.8933   -0.4392    1.2670 C   0  0  0  0  0  0  0  0  0  0  0  0
   12.2774   -0.1501    2.5876 C   0  0  0  0  0  0  0  0  0  0  0  0
   13.5235   -0.5556    3.0939 C   0  0  0  0  0  0  0  0  0  0  0  0
   13.9084   -0.2673    4.4139 C   0  0  0  0  0  0  0  0  0  0  0  0
   15.1502   -0.6774    4.9017 C   0  0  0  0  0  0  0  0  0  0  0  0
   16.0226   -1.3805    4.0769 C   0  0  0  0  0  0  0  0  0  0  0  0
   15.6546   -1.6747    2.7631 C   0  0  0  0  0  0  0  0  0  0  0  0
   14.4083   -1.2688    2.2576 C   0  0  0  0  0  0  0  0  0  0  0  0
   14.0233   -1.5573    0.9378 C   0  0  0  0  0  0  0  0  0  0  0  0
   12.7765   -1.1514    0.4325 C   0  0  0  0  0  0  0  0  0  0  0  0
   12.3914   -1.4405   -0.8876 C   0  0  0  0  0  0  0  0  0  0  0  0
   11.1451   -1.0351   -1.3939 C   0  0  0  0  0  0  0  0  0  0  0  0
   10.7595   -1.3247   -2.7137 C   0  0  0  0  0  0  0  0  0  0  0  0
    9.5127   -0.9183   -3.2194 C   0  0  0  0  0  0  0  0  0  0  0  0
    9.1245   -1.2058   -4.5373 C   0  0  0  0  0  0  0  0  0  0  0  0
    7.8786   -0.8005   -5.0458 C   0  0  0  0  0  0  0  0  0  0  0  0
    7.5251   -1.1054   -6.3690 C   0  0  0  0  0  0  0  0  0  0  0  0
    6.2965   -0.7118   -6.8907 C   0  0  0  0  0  0  0  0  0  0  0  0
    5.4025   -0.0063   -6.0928 C   0  0  0  0  0  0  0  0  0  0  0  0
    3.7940    0.3870   -3.1728 C   0  0  0  0  0  0  0  0  0  0  0  0
    2.8409    1.0848   -2.4111 C   0  0  0  0  0  0  0  0  0  0  0  0
    1.9093    0.4084   -1.6065 C   0  0  0  0  0  0  0  0  0  0  0  0
    0.9565    1.1053   -0.8446 C   0  0  0  0  0  0  0  0  0  0  0  0
    0.0250    0.4285   -0.0395 C   0  0  0  0  0  0  0  0  0  0  0  0
   -0.9283    1.1243    0.7226 C   0  0  0  0  0  0  0  0  0  0  0  0
   -1.8593    0.4465    1.5275 C   0  0  0  0  0  0  0  0  0  0  0  0
   -2.8127    1.1419    2.2893 C   0  0  0  0  0  0  0  0  0  0  0  0
   -3.7438    0.4635    3.0947 C   0  0  0  0  0  0  0  0  0  0  0  0
   -6.9254   -0.0095    4.1965 C   0  0  0  0  0  0  0  0  0  0  0  0
   -7.3635    0.2087    2.8682 C   0  0  0  0  0  0  0  0  0  0  0  0
   -8.6132   -0.2375    2.4029 C   0  0  0  0  0  0  0  0  0  0  0  0
   -9.0289   -0.0105    1.0797 C   0  0  0  0  0  0  0  0  0  0  0  0
  -10.2781   -0.4563    0.6159 C   0  0  0  0  0  0  0  0  0  0  0  0
  -10.6935   -0.2290   -0.7071 C   0  0  0  0  0  0  0  0  0  0  0  0
  -11.9429   -0.6744   -1.1708 C   0  0  0  0  0  0  0  0  0  0  0  0
  -12.3577   -0.4464   -2.4941 C   0  0  0  0  0  0  0  0  0  0  0  0
  -13.6068   -0.8917   -2.9575 C   0  0  0  0  0  0  0  0  0  0  0  0
  -14.0221   -0.6641   -4.2801 C   0  0  0  0  0  0  0  0  0  0  0  0
  -15.2665   -1.1129   -4.7251 C   0  0  0  0  0  0  0  0  0  0  0  0
  -17.0804   -2.1448   -4.1987 H   0  0  0  0  0  0  0  0  0  0  0  0
  -16.3870   -2.5627   -1.8721 H   0  0  0  0  0  0  0  0  0  0  0  0
  -14.7089   -2.3433   -0.0714 H   0  0  0  0  0  0  0  0  0  0  0  0
  -13.0428   -2.1252    1.7145 H   0  0  0  0  0  0  0  0  0  0  0  0
  -11.3757   -1.9064    3.5014 H   0  0  0  0  0  0  0  0  0  0  0  0
   -9.7079   -1.6848    5.2835 H   0  0  0  0  0  0  0  0  0  0  0  0
   -8.0761   -1.4824    7.0720 H   0  0  0  0  0  0  0  0  0  0  0  0
   -5.8954   -0.7095    7.9046 H   0  0  0  0  0  0  0  0  0  0  0  0
   -4.3520    0.5048    6.4141 H   0  0  0  0  0  0  0  0  0  0  0  0
   -5.4380    3.1202    4.3790 H   0  0  0  0  0  0  0  0  0  0  0  0
   -3.8221    4.3334    2.9845 H   0  0  0  0  0  0  0  0  0  0  0  0
   -1.9225    4.3162    1.4061 H   0  0  0  0  0  0  0  0  0  0  0  0
   -0.0378    4.2967   -0.1612 H   0  0  0  0  0  0  0  0  0  0  0  0
    1.8497    4.2781   -1.7277 H   0  0  0  0  0  0  0  0  0  0  0  0
    3.7520    4.2566   -3.3046 H   0  0  0  0  0  0  0  0  0  0  0  0
    5.4069    3.0101   -4.6205 H   0  0  0  0  0  0  0  0  0  0  0  0
    6.7159    0.7519   -2.2392 H   0  0  0  0  0  0  0  0  0  0  0  0
    8.3329    0.6341   -0.4235 H   0  0  0  0  0  0  0  0  0  0  0  0
    9.9640    0.5169    1.4049 H   0  0  0  0  0  0  0  0  0  0  0  0
   11.5948    0.4000    3.2327 H   0  0  0  0  0  0  0  0  0  0  0  0
   13.2404    0.2812    5.0743 H   0  0  0  0  0  0  0  0  0  0  0  0
   15.4347   -0.4473    5.9251 H   0  0  0  0  0  0  0  0  0  0  0  0
   16.9901   -1.7009    4.4545 H   0  0  0  0  0  0  0  0  0  0  0  0
   16.3501   -2.2253    2.1337 H   0  0  0  0  0  0  0  0  0  0  0  0
   14.7063   -2.1076    0.2933 H   0  0  0  0  0  0  0  0  0  0  0  0
   13.0740   -1.9911   -1.5325 H   0  0  0  0  0  0  0  0  0  0  0  0
   11.4415   -1.8758   -3.3587 H   0  0  0  0  0  0  0  0  0  0  0  0
    9.8081   -1.7572   -5.1810 H   0  0  0  0  0  0  0  0  0  0  0  0
    8.2109   -1.6568   -7.0092 H   0  0  0  0  0  0  0  0  0  0  0  0
    6.0361   -0.9551   -7.9174 H   0  0  0  0  0  0  0  0  0  0  0  0
    4.4435    0.2955   -6.5108 H   0  0  0  0  0  0  0  0  0  0  0  0
    3.8172   -0.7015   -3.1437 H   0  0  0  0  0  0  0  0  0  0  0  0
    1.9271   -0.6796   -1.5727 H   0  0  0  0  0  0  0  0  0  0  0  0
    0.0423   -0.6595   -0.0054 H   0  0  0  0  0  0  0  0  0  0  0  0
   -1.8417   -0.6416    1.5621 H   0  0  0  0  0  0  0  0  0  0  0  0
   -3.7327   -0.6249    3.1341 H   0  0  0  0  0  0  0  0  0  0  0  0
   -6.7150    0.7414    2.1739 H   0  0  0  0  0  0  0  0  0  0  0  0
   -8.3677    0.5230    0.3988 H   0  0  0  0  0  0  0  0  0  0  0  0
  -10.0325    0.3043   -1.3881 H   0  0  0  0  0  0  0  0  0  0  0  0
  -11.6973    0.0866   -3.1756 H   0  0  0  0  0  0  0  0  0  0  0  0
  -13.3761   -0.1333   -4.9758 H   0  0  0  0  0  0  0  0  0  0  0  0
  -15.5748   -0.9299   -5.7511 H   0  0  0  0  0  0  0  0  0  0  0  0
  1  2  4  0
  2  3  4  0
  3  4  4  0
  4  5  4  0
  5  6  4  0
  6  7  4  0
  7  8  4  0
  8  9  4  0
  9 10  4  0
 10 11  4  0
 11 12  4  0
 12 13  4  0
 13 14  4  0
 14 15  4  0
 15 16  1  0
 16 17  4  0
 17 18  4  0
 18 19  4  0
 19 20  4  0
 20 21  4  0
 21 22  4  0
 22 23  4  0
 23 24  4  0
 24 25  4  0
 25 26  4  0
 26 27  4  0
 27 28  4  0
 28 29  1  0
 29 30  4  0
 30 31  4  0
 31 32  4  0
 32 33  4  0
 33 34  4  0
 34 35  4  0
 35 36  4  0
 36 37  4  0
 37 38  4  0
 38 39  4  0
 39 40  4  0
 40 41  4  0
 41 42  4  0
 42 43  4  0
 43 44  4  0
 44 45  4  0
 45 46  4  0
 46 47  4  0
 47 48  4  0
 48 49  4  0
 49 50  4  0
 50 51  4  0
 51 52  4  0
 52 53  4  0
 53 54  4  0
 28 55  4  0
 55 56  4  0
 56 57  4  0
 57 58  4  0
 58 59  4  0
 59 60  4  0
 60 61  4  0
 61 62  4  0
 62 63  4  0
 15 64  4  0
 64 65  4  0
 65 66  4  0
 66 67  4  0
 67 68  4  0
 68 69  4  0
 69 70  4  0
 70 71  4  0
 71 72  4  0
 72 73  4  0
 73 74  4  0
 74  1  4  0
 72  3  4  0
 70  5  4  0
 68  7  4  0
 66  9  4  0
 64 11  4  0
 63 16  4  0
 62 19  4  0
 60 21  4  0
 58 23  4  0
 56 25  4  0
 54 29  4  0
 51 30  4  0
 49 32  4  0
 47 34  4  0
 45 36  4  0
 43 38  4  0
  1 75  1  0
  2 76  1  0
  4 77  1  0
  6 78  1  0
  8 79  1  0
 10 80  1  0
 12 81  1  0
 13 82  1  0
 14 83  1  0
 17 84  1  0
 18 85  1  0
 20 86  1  0
 22 87  1  0
 24 88  1  0
 26 89  1  0
 27 90  1  0
 31 91  1  0
 33 92  1  0
 35 93  1  0
 37 94  1  0
 39 95  1  0
 40 96  1  0
 41 97  1  0
 42 98  1  0
 44 99  1  0
 46100  1  0
 48101  1  0
 50102  1  0
 52103  1  0
 53104  1  0
 54105  1  0
 55106  1  0
 57107  1  0
 59108  1  0
 61109  1  0
 63110  1  0
 65111  1  0
 67112  1  0
 69113  1  0
 71114  1  0
 73115  1  0
 74116  1  0
M  END
