
     RDKit          3D

 92104  0  0  0  0  0  0  0  0999 V2000
   -9.4721    4.9563   -3.8767 C   0  0  0  0  0  0  0  0  0  0  0  0
  -10.0276    4.4000   -2.7232 C   0  0  0  0  0  0  0  0  0  0  0  0
   -9.3921    3.3370   -2.0596 C   0  0  0  0  0  0  0  0  0  0  0  0
   -9.9368    2.7656   -0.8974 C   0  0  0  0  0  0  0  0  0  0  0  0
   -9.2987    1.7025   -0.2348 C   0  0  0  0  0  0  0  0  0  0  0  0
   -9.8392    1.1293    0.9270 C   0  0  0  0  0  0  0  0  0  0  0  0
   -9.2035    0.0666    1.5922 C   0  0  0  0  0  0  0  0  0  0  0  0
   -9.7738   -0.4818    2.7511 C   0  0  0  0  0  0  0  0  0  0  0  0
   -9.1592   -1.5346    3.4227 C   0  0  0  0  0  0  0  0  0  0  0  0
   -7.9620   -2.0539    2.9425 C   0  0  0  0  0  0  0  0  0  0  0  0
   -7.3592   -1.5304    1.7843 C   0  0  0  0  0  0  0  0  0  0  0  0
   -6.0918   -2.1256    1.3325 C   0  0  0  0  0  0  0  0  0  0  0  0
   -6.0882   -3.2473    0.4953 C   0  0  0  0  0  0  0  0  0  0  0  0
   -4.8843   -3.8092    0.0637 C   0  0  0  0  0  0  0  0  0  0  0  0
   -3.6546   -3.2624    0.4605 C   0  0  0  0  0  0  0  0  0  0  0  0
   -2.4360   -3.8149    0.0337 C   0  0  0  0  0  0  0  0  0  0  0  0
   -1.2045   -3.2664    0.4295 C   0  0  0  0  0  0  0  0  0  0  0  0
    0.0149   -3.8189    0.0027 C   0  0  0  0  0  0  0  0  0  0  0  0
    1.2469   -3.2711    0.3977 C   0  0  0  0  0  0  0  0  0  0  0  0
    2.4660   -3.8246   -0.0291 C   0  0  0  0  0  0  0  0  0  0  0  0
    3.6974   -3.2766    0.3665 C   0  0  0  0  0  0  0  0  0  0  0  0
    4.9151   -3.8289   -0.0593 C   0  0  0  0  0  0  0  0  0  0  0  0
    6.1316   -3.2720    0.3434 C   0  0  0  0  0  0  0  0  0  0  0  0
    6.1603   -2.1495    1.1792 C   0  0  0  0  0  0  0  0  0  0  0  0
    7.4405   -1.5647    1.6093 C   0  0  0  0  0  0  0  0  0  0  0  0
    8.0305   -0.4456    0.9519 C   0  0  0  0  0  0  0  0  0  0  0  0
    7.4552    0.1944   -0.1722 C   0  0  0  0  0  0  0  0  0  0  0  0
    8.0554    1.3001   -0.8005 C   0  0  0  0  0  0  0  0  0  0  0  0
    7.4650    1.9227   -1.9136 C   0  0  0  0  0  0  0  0  0  0  0  0
    8.0649    3.0283   -2.5389 C   0  0  0  0  0  0  0  0  0  0  0  0
    7.4749    3.6519   -3.6509 C   0  0  0  0  0  0  0  0  0  0  0  0
    8.0838    4.7501   -4.2601 C   0  0  0  0  0  0  0  0  0  0  0  0
    9.2893    5.2387   -3.7661 C   0  0  0  0  0  0  0  0  0  0  0  0
    9.8879    4.6298   -2.6621 C   0  0  0  0  0  0  0  0  0  0  0  0
    9.2874    3.5236   -2.0382 C   0  0  0  0  0  0  0  0  0  0  0  0
    9.8764    2.8993   -0.9264 C   0  0  0  0  0  0  0  0  0  0  0  0
    9.2735    1.7934   -0.3025 C   0  0  0  0  0  0  0  0  0  0  0  0
    9.8598    1.1676    0.8084 C   0  0  0  0  0  0  0  0  0  0  0  0
    9.2596    0.0630    1.4365 C   0  0  0  0  0  0  0  0  0  0  0  0
    9.8772   -0.5371    2.5441 C   0  0  0  0  0  0  0  0  0  0  0  0
    9.2993   -1.6314    3.1802 C   0  0  0  0  0  0  0  0  0  0  0  0
    8.0912   -2.1398    2.7162 C   0  0  0  0  0  0  0  0  0  0  0  0
    4.9420   -1.5985    1.6073 C   0  0  0  0  0  0  0  0  0  0  0  0
    3.7103   -2.1470    1.2102 C   0  0  0  0  0  0  0  0  0  0  0  0
    2.4913   -1.5943    1.6362 C   0  0  0  0  0  0  0  0  0  0  0  0
    1.2598   -2.1426    1.2402 C   0  0  0  0  0  0  0  0  0  0  0  0
    0.0405   -1.5899    1.6668 C   0  0  0  0  0  0  0  0  0  0  0  0
   -1.1916   -2.1379    1.2720 C   0  0  0  0  0  0  0  0  0  0  0  0
   -2.4108   -1.5848    1.6992 C   0  0  0  0  0  0  0  0  0  0  0  0
   -3.6423   -2.1333    1.3050 C   0  0  0  0  0  0  0  0  0  0  0  0
   -4.8618   -1.5803    1.7327 C   0  0  0  0  0  0  0  0  0  0  0  0
   -7.9853   -0.4526    1.0924 C   0  0  0  0  0  0  0  0  0  0  0  0
   -7.4549    0.1356   -0.0809 C   0  0  0  0  0  0  0  0  0  0  0  0
   -8.0902    1.1990   -0.7456 C   0  0  0  0  0  0  0  0  0  0  0  0
   -7.5437    1.7688   -1.9083 C   0  0  0  0  0  0  0  0  0  0  0  0
   -8.1787    2.8314   -2.5718 C   0  0  0  0  0  0  0  0  0  0  0  0
   -7.6323    3.4015   -3.7336 C   0  0  0  0  0  0  0  0  0  0  0  0
   -8.2754    4.4573   -4.3814 C   0  0  0  0  0  0  0  0  0  0  0  0
   -9.9749    5.7782   -4.3798 H   0  0  0  0  0  0  0  0  0  0  0  0
  -10.9638    4.8034   -2.3441 H   0  0  0  0  0  0  0  0  0  0  0  0
  -10.8732    3.1548   -0.5022 H   0  0  0  0  0  0  0  0  0  0  0  0
  -10.7759    1.5195    1.3219 H   0  0  0  0  0  0  0  0  0  0  0  0
  -10.7102   -0.0892    3.1426 H   0  0  0  0  0  0  0  0  0  0  0  0
   -9.6123   -1.9492    4.3191 H   0  0  0  0  0  0  0  0  0  0  0  0
   -7.4891   -2.8765    3.4765 H   0  0  0  0  0  0  0  0  0  0  0  0
   -7.0291   -3.6863    0.1692 H   0  0  0  0  0  0  0  0  0  0  0  0
   -4.9161   -4.6791   -0.5885 H   0  0  0  0  0  0  0  0  0  0  0  0
   -2.4465   -4.6867   -0.6181 H   0  0  0  0  0  0  0  0  0  0  0  0
    0.0048   -4.6911   -0.6486 H   0  0  0  0  0  0  0  0  0  0  0  0
    2.4567   -4.6972   -0.6800 H   0  0  0  0  0  0  0  0  0  0  0  0
    4.9278   -4.7003   -0.7103 H   0  0  0  0  0  0  0  0  0  0  0  0
    7.0623   -3.7175   -0.0025 H   0  0  0  0  0  0  0  0  0  0  0  0
    6.5132   -0.1773   -0.5731 H   0  0  0  0  0  0  0  0  0  0  0  0
    6.5215    1.5402   -2.2994 H   0  0  0  0  0  0  0  0  0  0  0  0
    6.5326    3.2845   -4.0513 H   0  0  0  0  0  0  0  0  0  0  0  0
    7.6158    5.2227   -5.1197 H   0  0  0  0  0  0  0  0  0  0  0  0
    9.7651    6.0939   -4.2386 H   0  0  0  0  0  0  0  0  0  0  0  0
   10.8301    5.0262   -2.2906 H   0  0  0  0  0  0  0  0  0  0  0  0
   10.8196    3.2809   -0.5400 H   0  0  0  0  0  0  0  0  0  0  0  0
   10.8046    1.5495    1.1923 H   0  0  0  0  0  0  0  0  0  0  0  0
   10.8222   -0.1529    2.9229 H   0  0  0  0  0  0  0  0  0  0  0  0
    9.7890   -2.0857    4.0373 H   0  0  0  0  0  0  0  0  0  0  0  0
    7.6457   -2.9935    3.2244 H   0  0  0  0  0  0  0  0  0  0  0  0
    4.9602   -0.7256    2.2586 H   0  0  0  0  0  0  0  0  0  0  0  0
    2.5016   -0.7222    2.2879 H   0  0  0  0  0  0  0  0  0  0  0  0
    0.0505   -0.7175    2.3181 H   0  0  0  0  0  0  0  0  0  0  0  0
   -2.4017   -0.7114    2.3492 H   0  0  0  0  0  0  0  0  0  0  0  0
   -4.8611   -0.7074    2.3842 H   0  0  0  0  0  0  0  0  0  0  0  0
   -6.5202   -0.2437   -0.4918 H   0  0  0  0  0  0  0  0  0  0  0  0
   -6.6072    1.3779   -2.3029 H   0  0  0  0  0  0  0  0  0  0  0  0
   -6.6978    3.0243   -4.1432 H   0  0  0  0  0  0  0  0  0  0  0  0
   -7.8409    4.8883   -5.2795 H   0  0  0  0  0  0  0  0  0  0  0  0
  1  2  4  0
  2  3  4  0
  3  4  4  0
  4  5  4  0
  5  6  4  0
  6  7  4  0
  7  8  4  0
  8  9  4  0
  9 10  4  0
 10 11  4  0
 11 12  1  0
 12 13  4  0
 13 14  4  0
 14 15  4  0
 15 16  4  0
 16 17  4  0
 17 18  4  0
 18 19  4  0
 19 20  4  0
 20 21  4  0
 21 22  4  0
 22 23  4  0
 23 24  4  0
 24 25  1  0
 25 26  4  0
 26 27  4  0
 27 28  4  0
 28 29  4  0
 29 30  4  0
 30 31  4  0
 31 32  4  0
 32 33  4  0
 33 34  4  0
 34 35  4  0
 35 36  4  0
 36 37  4  0
 37 38  4  0
 38 39  4  0
 39 40  4  0
 40 41  4  0
 41 42  4  0
 24 43  4  0
 43 44  4  0
 44 45  4  0
 45 46  4  0
 46 47  4  0
 47 48  4  0
 48 49  4  0
 49 50  4  0
 50 51  4  0
 11 52  4  0
 52 53  4  0
 53 54  4  0
 54 55  4  0
 55 56  4  0
 56 57  4  0
 57 58  4  0
 58  1  4  0
 56  3  4  0
 54  5  4  0
 52  7  4  0
 51 12  4  0
 50 15  4  0
 48 17  4  0
 46 19  4  0
 44 21  4  0
 42 25  4  0
 39 26  4  0
 37 28  4  0
 35 30  4  0
  1 59  1  0
  2 60  1  0
  4 61  1  0
  6 62  1  0
  8 63  1  0
  9 64  1  0
 10 65  1  0
 13 66  1  0
 14 67  1  0
 16 68  1  0
 18 69  1  0
 20 70  1  0
 22 71  1  0
 23 72  1  0
 27 73  1  0
 29 74  1  0
 31 75  1  0
 32 76  1  0
 33 77  1  0
 34 78  1  0
 36 79  1  0
 38 80  1  0
 40 81  1  0
 41 82  1  0
 42 83  1  0
 43 84  1  0
 45 85  1  0
 47 86  1  0
 49 87  1  0
 51 88  1  0
 53 89  1  0
 55 90  1  0
 57 91  1  0
 58 92  1  0
M  END
