
     RDKit          3D

 92104  0  0  0  0  0  0  0  0999 V2000
  -15.1631   -3.7323    2.0878 C   0  0  0  0  0  0  0  0  0  0  0  0
  -14.8060   -2.7590    1.1532 C   0  0  0  0  0  0  0  0  0  0  0  0
  -13.5192   -2.1954    1.1581 C   0  0  0  0  0  0  0  0  0  0  0  0
  -13.1440   -1.2152    0.2244 C   0  0  0  0  0  0  0  0  0  0  0  0
  -11.8563   -0.6522    0.2295 C   0  0  0  0  0  0  0  0  0  0  0  0
  -11.4810    0.3282   -0.7047 C   0  0  0  0  0  0  0  0  0  0  0  0
  -10.1932    0.8898   -0.7004 C   0  0  0  0  0  0  0  0  0  0  0  0
   -9.8170    1.8685   -1.6318 C   0  0  0  0  0  0  0  0  0  0  0  0
   -8.5303    2.4159   -1.6148 C   0  0  0  0  0  0  0  0  0  0  0  0
   -7.5829    2.0013   -0.6693 C   0  0  0  0  0  0  0  0  0  0  0  0
   -6.2262    2.5712   -0.6540 C   0  0  0  0  0  0  0  0  0  0  0  0
   -6.0239    3.9546   -0.5591 C   0  0  0  0  0  0  0  0  0  0  0  0
   -4.7338    4.4938   -0.5416 C   0  0  0  0  0  0  0  0  0  0  0  0
   -3.6076    3.6620   -0.6203 C   0  0  0  0  0  0  0  0  0  0  0  0
   -2.3048    4.1874   -0.6033 C   0  0  0  0  0  0  0  0  0  0  0  0
   -1.1773    3.3527   -0.6839 C   0  0  0  0  0  0  0  0  0  0  0  0
    0.1261    3.8773   -0.6666 C   0  0  0  0  0  0  0  0  0  0  0  0
    1.2539    3.0432   -0.7482 C   0  0  0  0  0  0  0  0  0  0  0  0
    2.5572    3.5680   -0.7305 C   0  0  0  0  0  0  0  0  0  0  0  0
    3.6839    2.7332   -0.8121 C   0  0  0  0  0  0  0  0  0  0  0  0
    4.9849    3.2559   -0.7929 C   0  0  0  0  0  0  0  0  0  0  0  0
    6.0959    2.4114   -0.8746 C   0  0  0  0  0  0  0  0  0  0  0  0
    5.9399    1.0227   -0.9793 C   0  0  0  0  0  0  0  0  0  0  0  0
    7.1092    0.1342   -1.0673 C   0  0  0  0  0  0  0  0  0  0  0  0
    7.2589   -0.7575   -2.1379 C   0  0  0  0  0  0  0  0  0  0  0  0
    8.3721   -1.5989   -2.2229 C   0  0  0  0  0  0  0  0  0  0  0  0
    9.3679   -1.5727   -1.2361 C   0  0  0  0  0  0  0  0  0  0  0  0
   10.4928   -2.4111   -1.3070 C   0  0  0  0  0  0  0  0  0  0  0  0
   11.4897   -2.3847   -0.3172 C   0  0  0  0  0  0  0  0  0  0  0  0
   12.6152   -3.2230   -0.3882 C   0  0  0  0  0  0  0  0  0  0  0  0
   13.6119   -3.1971    0.6013 C   0  0  0  0  0  0  0  0  0  0  0  0
   14.7375   -4.0347    0.5306 C   0  0  0  0  0  0  0  0  0  0  0  0
   15.7192   -3.9971    1.5221 C   0  0  0  0  0  0  0  0  0  0  0  0
   15.5883   -3.1225    2.5962 C   0  0  0  0  0  0  0  0  0  0  0  0
   14.4758   -2.2840    2.6804 C   0  0  0  0  0  0  0  0  0  0  0  0
   13.4794   -2.3100    1.6905 C   0  0  0  0  0  0  0  0  0  0  0  0
   12.3538   -1.4724    1.7607 C   0  0  0  0  0  0  0  0  0  0  0  0
   11.3575   -1.4987    0.7700 C   0  0  0  0  0  0  0  0  0  0  0  0
   10.2322   -0.6601    0.8402 C   0  0  0  0  0  0  0  0  0  0  0  0
    9.2358   -0.6848   -0.1500 C   0  0  0  0  0  0  0  0  0  0  0  0
    8.1099    0.1560   -0.0808 C   0  0  0  0  0  0  0  0  0  0  0  0
    4.6339    0.5042   -0.9984 C   0  0  0  0  0  0  0  0  0  0  0  0
    3.5048    1.3395   -0.9154 C   0  0  0  0  0  0  0  0  0  0  0  0
    2.2013    0.8154   -0.9321 C   0  0  0  0  0  0  0  0  0  0  0  0
    1.0739    1.6502   -0.8498 C   0  0  0  0  0  0  0  0  0  0  0  0
   -0.2295    1.1257   -0.8668 C   0  0  0  0  0  0  0  0  0  0  0  0
   -1.3574    1.9597   -0.7846 C   0  0  0  0  0  0  0  0  0  0  0  0
   -2.6608    1.4345   -0.8008 C   0  0  0  0  0  0  0  0  0  0  0  0
   -3.7887    2.2682   -0.7187 C   0  0  0  0  0  0  0  0  0  0  0  0
   -5.0937    1.7425   -0.7336 C   0  0  0  0  0  0  0  0  0  0  0  0
   -7.9659    1.0217    0.2631 C   0  0  0  0  0  0  0  0  0  0  0  0
   -9.2564    0.4610    0.2608 C   0  0  0  0  0  0  0  0  0  0  0  0
   -9.6329   -0.5177    1.1959 C   0  0  0  0  0  0  0  0  0  0  0  0
  -10.9209   -1.0800    1.1920 C   0  0  0  0  0  0  0  0  0  0  0  0
  -11.2956   -2.0600    2.1270 C   0  0  0  0  0  0  0  0  0  0  0  0
  -12.5824   -2.6234    2.1225 C   0  0  0  0  0  0  0  0  0  0  0  0
  -12.9569   -3.6036    3.0565 C   0  0  0  0  0  0  0  0  0  0  0  0
  -14.2393   -4.1543    3.0388 C   0  0  0  0  0  0  0  0  0  0  0  0
  -16.1623   -4.1596    2.0720 H   0  0  0  0  0  0  0  0  0  0  0  0
  -15.5422   -2.4422    0.4179 H   0  0  0  0  0  0  0  0  0  0  0  0
  -13.8671   -0.8852   -0.5193 H   0  0  0  0  0  0  0  0  0  0  0  0
  -12.2036    0.6597   -1.4483 H   0  0  0  0  0  0  0  0  0  0  0  0
  -10.5229    2.2128   -2.3844 H   0  0  0  0  0  0  0  0  0  0  0  0
   -8.2680    3.1645   -2.3599 H   0  0  0  0  0  0  0  0  0  0  0  0
   -6.8757    4.6279   -0.4849 H   0  0  0  0  0  0  0  0  0  0  0  0
   -4.6174    5.5725   -0.4629 H   0  0  0  0  0  0  0  0  0  0  0  0
   -2.1663    5.2644   -0.5265 H   0  0  0  0  0  0  0  0  0  0  0  0
    0.2654    4.9541   -0.5888 H   0  0  0  0  0  0  0  0  0  0  0  0
    2.6977    4.6446   -0.6517 H   0  0  0  0  0  0  0  0  0  0  0  0
    5.1468    4.3288   -0.7166 H   0  0  0  0  0  0  0  0  0  0  0  0
    7.0917    2.8507   -0.8682 H   0  0  0  0  0  0  0  0  0  0  0  0
    6.5103   -0.7951   -2.9270 H   0  0  0  0  0  0  0  0  0  0  0  0
    8.4548   -2.2744   -3.0715 H   0  0  0  0  0  0  0  0  0  0  0  0
   10.5938   -3.0958   -2.1470 H   0  0  0  0  0  0  0  0  0  0  0  0
   12.7178   -3.9078   -1.2281 H   0  0  0  0  0  0  0  0  0  0  0  0
   14.8574   -4.7252   -0.3012 H   0  0  0  0  0  0  0  0  0  0  0  0
   16.5846   -4.6511    1.4545 H   0  0  0  0  0  0  0  0  0  0  0  0
   16.3514   -3.0917    3.3695 H   0  0  0  0  0  0  0  0  0  0  0  0
   14.3914   -1.6073    3.5278 H   0  0  0  0  0  0  0  0  0  0  0  0
   12.2520   -0.7883    2.6012 H   0  0  0  0  0  0  0  0  0  0  0  0
   10.1300    0.0244    1.6805 H   0  0  0  0  0  0  0  0  0  0  0  0
    8.0032    0.8347    0.7643 H   0  0  0  0  0  0  0  0  0  0  0  0
    4.4952   -0.5739   -1.0676 H   0  0  0  0  0  0  0  0  0  0  0  0
    2.0622   -0.2614   -1.0105 H   0  0  0  0  0  0  0  0  0  0  0  0
   -0.3683    0.0488   -0.9459 H   0  0  0  0  0  0  0  0  0  0  0  0
   -2.8004    0.3576   -0.8791 H   0  0  0  0  0  0  0  0  0  0  0  0
   -5.2335    0.6657   -0.8203 H   0  0  0  0  0  0  0  0  0  0  0  0
   -7.2460    0.6970    1.0132 H   0  0  0  0  0  0  0  0  0  0  0  0
   -8.9100   -0.8480    1.9398 H   0  0  0  0  0  0  0  0  0  0  0  0
  -10.5737   -2.3905    2.8716 H   0  0  0  0  0  0  0  0  0  0  0  0
  -12.2489   -3.9464    3.8078 H   0  0  0  0  0  0  0  0  0  0  0  0
  -14.5153   -4.9119    3.7675 H   0  0  0  0  0  0  0  0  0  0  0  0
  1  2  4  0
  2  3  4  0
  3  4  4  0
  4  5  4  0
  5  6  4  0
  6  7  4  0
  7  8  4  0
  8  9  4  0
  9 10  4  0
 10 11  1  0
 11 12  4  0
 12 13  4  0
 13 14  4  0
 14 15  4  0
 15 16  4  0
 16 17  4  0
 17 18  4  0
 18 19  4  0
 19 20  4  0
 20 21  4  0
 21 22  4  0
 22 23  4  0
 23 24  1  0
 24 25  4  0
 25 26  4  0
 26 27  4  0
 27 28  4  0
 28 29  4  0
 29 30  4  0
 30 31  4  0
 31 32  4  0
 32 33  4  0
 33 34  4  0
 34 35  4  0
 35 36  4  0
 36 37  4  0
 37 38  4  0
 38 39  4  0
 39 40  4  0
 40 41  4  0
 23 42  4  0
 42 43  4  0
 43 44  4  0
 44 45  4  0
 45 46  4  0
 46 47  4  0
 47 48  4  0
 48 49  4  0
 49 50  4  0
 10 51  4  0
 51 52  4  0
 52 53  4  0
 53 54  4  0
 54 55  4  0
 55 56  4  0
 56 57  4  0
 57 58  4  0
 58  1  4  0
 56  3  4  0
 54  5  4  0
 52  7  4  0
 50 11  4  0
 49 14  4  0
 47 16  4  0
 45 18  4  0
 43 20  4  0
 41 24  4  0
 40 27  4  0
 38 29  4  0
 36 31  4  0
  1 59  1  0
  2 60  1  0
  4 61  1  0
  6 62  1  0
  8 63  1  0
  9 64  1  0
 12 65  1  0
 13 66  1  0
 15 67  1  0
 17 68  1  0
 19 69  1  0
 21 70  1  0
 22 71  1  0
 25 72  1  0
 26 73  1  0
 28 74  1  0
 30 75  1  0
 32 76  1  0
 33 77  1  0
 34 78  1  0
 35 79  1  0
 37 80  1  0
 39 81  1  0
 41 82  1  0
 42 83  1  0
 44 84  1  0
 46 85  1  0
 48 86  1  0
 50 87  1  0
 51 88  1  0
 53 89  1  0
 55 90  1  0
 57 91  1  0
 58 92  1  0
M  END
