
     RDKit          3D

 92104  0  0  0  0  0  0  0  0999 V2000
    9.6361    3.4280   -5.0056 C   0  0  0  0  0  0  0  0  0  0  0  0
    8.3771    3.9447   -4.7164 C   0  0  0  0  0  0  0  0  0  0  0  0
    7.6786    3.4922   -3.5958 C   0  0  0  0  0  0  0  0  0  0  0  0
    8.2312    2.5164   -2.7497 C   0  0  0  0  0  0  0  0  0  0  0  0
    7.5421    2.0503   -1.6177 C   0  0  0  0  0  0  0  0  0  0  0  0
    8.0964    1.0739   -0.7720 C   0  0  0  0  0  0  0  0  0  0  0  0
    7.4085    0.6059    0.3617 C   0  0  0  0  0  0  0  0  0  0  0  0
    7.9483   -0.3773    1.2257 C   0  0  0  0  0  0  0  0  0  0  0  0
    9.2305   -0.8898    0.9143 C   0  0  0  0  0  0  0  0  0  0  0  0
    9.9181   -0.4221   -0.2183 C   0  0  0  0  0  0  0  0  0  0  0  0
    9.3681    0.5524   -1.0652 C   0  0  0  0  0  0  0  0  0  0  0  0
   10.0599    1.0170   -2.1969 C   0  0  0  0  0  0  0  0  0  0  0  0
    9.5079    1.9925   -3.0432 C   0  0  0  0  0  0  0  0  0  0  0  0
   10.1984    2.4579   -4.1746 C   0  0  0  0  0  0  0  0  0  0  0  0
    9.8136   -1.8646    1.7378 C   0  0  0  0  0  0  0  0  0  0  0  0
    9.1495   -2.3405    2.8641 C   0  0  0  0  0  0  0  0  0  0  0  0
    7.8893   -1.8462    3.1818 C   0  0  0  0  0  0  0  0  0  0  0  0
    7.2716   -0.8689    2.3801 C   0  0  0  0  0  0  0  0  0  0  0  0
    5.9360   -0.3936    2.7739 C   0  0  0  0  0  0  0  0  0  0  0  0
    5.7920    0.6666    3.6763 C   0  0  0  0  0  0  0  0  0  0  0  0
    4.5229    1.1145    4.0516 C   0  0  0  0  0  0  0  0  0  0  0  0
    3.3667    0.5119    3.5324 C   0  0  0  0  0  0  0  0  0  0  0  0
    2.0835    0.9514    3.8980 C   0  0  0  0  0  0  0  0  0  0  0  0
    0.9261    0.3494    3.3755 C   0  0  0  0  0  0  0  0  0  0  0  0
   -0.3579    0.7902    3.7384 C   0  0  0  0  0  0  0  0  0  0  0  0
   -1.5154    0.1884    3.2159 C   0  0  0  0  0  0  0  0  0  0  0  0
   -2.7991    0.6306    3.5779 C   0  0  0  0  0  0  0  0  0  0  0  0
   -3.9558    0.0287    3.0556 C   0  0  0  0  0  0  0  0  0  0  0  0
   -5.2379    0.4714    3.4158 C   0  0  0  0  0  0  0  0  0  0  0  0
   -6.3786   -0.1348    2.8840 C   0  0  0  0  0  0  0  0  0  0  0  0
   -6.2656   -1.1969    1.9794 C   0  0  0  0  0  0  0  0  0  0  0  0
   -7.4660   -1.8308    1.4108 C   0  0  0  0  0  0  0  0  0  0  0  0
   -8.1208   -2.8158    2.1723 C   0  0  0  0  0  0  0  0  0  0  0  0
   -9.2552   -3.4578    1.6878 C   0  0  0  0  0  0  0  0  0  0  0  0
   -9.7541   -3.1242    0.4320 C   0  0  0  0  0  0  0  0  0  0  0  0
   -9.1302   -2.1454   -0.3563 C   0  0  0  0  0  0  0  0  0  0  0  0
   -9.6496   -1.8210   -1.6218 C   0  0  0  0  0  0  0  0  0  0  0  0
   -9.0527   -0.8464   -2.4371 C   0  0  0  0  0  0  0  0  0  0  0  0
   -9.5731   -0.5247   -3.7028 C   0  0  0  0  0  0  0  0  0  0  0  0
   -8.9718    0.4508   -4.5155 C   0  0  0  0  0  0  0  0  0  0  0  0
   -9.4892    0.7734   -5.7811 C   0  0  0  0  0  0  0  0  0  0  0  0
   -8.8789    1.7449   -6.5763 C   0  0  0  0  0  0  0  0  0  0  0  0
   -7.7440    2.4056   -6.1167 C   0  0  0  0  0  0  0  0  0  0  0  0
   -7.2180    2.0964   -4.8615 C   0  0  0  0  0  0  0  0  0  0  0  0
   -7.8212    1.1215   -4.0499 C   0  0  0  0  0  0  0  0  0  0  0  0
   -7.3040    0.7990   -2.7848 C   0  0  0  0  0  0  0  0  0  0  0  0
   -7.9071   -0.1773   -1.9738 C   0  0  0  0  0  0  0  0  0  0  0  0
   -7.3892   -0.5005   -0.7077 C   0  0  0  0  0  0  0  0  0  0  0  0
   -7.9756   -1.4833    0.1253 C   0  0  0  0  0  0  0  0  0  0  0  0
   -4.9831   -1.6443    1.6239 C   0  0  0  0  0  0  0  0  0  0  0  0
   -3.8260   -1.0430    2.1486 C   0  0  0  0  0  0  0  0  0  0  0  0
   -2.5424   -1.4845    1.7871 C   0  0  0  0  0  0  0  0  0  0  0  0
   -1.3857   -0.8812    2.3090 C   0  0  0  0  0  0  0  0  0  0  0  0
   -0.1021   -1.3213    1.9454 C   0  0  0  0  0  0  0  0  0  0  0  0
    1.0554   -0.7191    2.4673 C   0  0  0  0  0  0  0  0  0  0  0  0
    2.3388   -1.1599    2.1024 C   0  0  0  0  0  0  0  0  0  0  0  0
    3.4963   -0.5580    2.6231 C   0  0  0  0  0  0  0  0  0  0  0  0
    4.7799   -0.9987    2.2566 C   0  0  0  0  0  0  0  0  0  0  0  0
   10.1822    3.7792   -5.8772 H   0  0  0  0  0  0  0  0  0  0  0  0
    7.9368    4.7005   -5.3612 H   0  0  0  0  0  0  0  0  0  0  0  0
    6.6956    3.9080   -3.3859 H   0  0  0  0  0  0  0  0  0  0  0  0
    6.5570    2.4542   -1.3903 H   0  0  0  0  0  0  0  0  0  0  0  0
    6.4246    1.0215    0.5757 H   0  0  0  0  0  0  0  0  0  0  0  0
   10.9036   -0.8249   -0.4464 H   0  0  0  0  0  0  0  0  0  0  0  0
   11.0449    0.6128   -2.4228 H   0  0  0  0  0  0  0  0  0  0  0  0
   11.1838    2.0661   -4.4166 H   0  0  0  0  0  0  0  0  0  0  0  0
   10.7989   -2.2639    1.5057 H   0  0  0  0  0  0  0  0  0  0  0  0
    9.6136   -3.0957    3.4926 H   0  0  0  0  0  0  0  0  0  0  0  0
    7.3781   -2.2268    4.0645 H   0  0  0  0  0  0  0  0  0  0  0  0
    6.6734    1.1533    4.0894 H   0  0  0  0  0  0  0  0  0  0  0  0
    4.4459    1.9418    4.7536 H   0  0  0  0  0  0  0  0  0  0  0  0
    1.9840    1.7767    4.6008 H   0  0  0  0  0  0  0  0  0  0  0  0
   -0.4584    1.6164    4.4401 H   0  0  0  0  0  0  0  0  0  0  0  0
   -2.9002    1.4582    4.2777 H   0  0  0  0  0  0  0  0  0  0  0  0
   -5.3604    1.2967    4.1137 H   0  0  0  0  0  0  0  0  0  0  0  0
   -7.3614    0.2314    3.1743 H   0  0  0  0  0  0  0  0  0  0  0  0
   -7.7369   -3.0877    3.1541 H   0  0  0  0  0  0  0  0  0  0  0  0
   -9.7487   -4.2183    2.2870 H   0  0  0  0  0  0  0  0  0  0  0  0
  -10.6420   -3.6388    0.0702 H   0  0  0  0  0  0  0  0  0  0  0  0
  -10.5381   -2.3382   -1.9809 H   0  0  0  0  0  0  0  0  0  0  0  0
  -10.4605   -1.0426   -4.0618 H   0  0  0  0  0  0  0  0  0  0  0  0
  -10.3751    0.2671   -6.1576 H   0  0  0  0  0  0  0  0  0  0  0  0
   -9.2901    1.9839   -7.5536 H   0  0  0  0  0  0  0  0  0  0  0  0
   -7.2661    3.1618   -6.7336 H   0  0  0  0  0  0  0  0  0  0  0  0
   -6.3298    2.6230   -4.5193 H   0  0  0  0  0  0  0  0  0  0  0  0
   -6.4157    1.3155   -2.4248 H   0  0  0  0  0  0  0  0  0  0  0  0
   -6.5037    0.0318   -0.3629 H   0  0  0  0  0  0  0  0  0  0  0  0
   -4.8919   -2.4711    0.9205 H   0  0  0  0  0  0  0  0  0  0  0  0
   -2.4424   -2.3118    1.0865 H   0  0  0  0  0  0  0  0  0  0  0  0
   -0.0003   -2.1471    1.2433 H   0  0  0  0  0  0  0  0  0  0  0  0
    2.4392   -1.9857    1.4000 H   0  0  0  0  0  0  0  0  0  0  0  0
    4.8883   -1.8244    1.5545 H   0  0  0  0  0  0  0  0  0  0  0  0
  1  2  4  0
  2  3  4  0
  3  4  4  0
  4  5  4  0
  5  6  4  0
  6  7  4  0
  7  8  4  0
  8  9  4  0
  9 10  4  0
 10 11  4  0
 11 12  4  0
 12 13  4  0
 13 14  4  0
  9 15  4  0
 15 16  4  0
 16 17  4  0
 17 18  4  0
 18 19  1  0
 19 20  4  0
 20 21  4  0
 21 22  4  0
 22 23  4  0
 23 24  4  0
 24 25  4  0
 25 26  4  0
 26 27  4  0
 27 28  4  0
 28 29  4  0
 29 30  4  0
 30 31  4  0
 31 32  1  0
 32 33  4  0
 33 34  4  0
 34 35  4  0
 35 36  4  0
 36 37  4  0
 37 38  4  0
 38 39  4  0
 39 40  4  0
 40 41  4  0
 41 42  4  0
 42 43  4  0
 43 44  4  0
 44 45  4  0
 45 46  4  0
 46 47  4  0
 47 48  4  0
 48 49  4  0
 31 50  4  0
 50 51  4  0
 51 52  4  0
 52 53  4  0
 53 54  4  0
 54 55  4  0
 55 56  4  0
 56 57  4  0
 57 58  4  0
 14  1  4  0
 58 19  4  0
 13  4  4  0
 57 22  4  0
 11  6  4  0
 55 24  4  0
 18  8  4  0
 53 26  4  0
 51 28  4  0
 49 32  4  0
 49 36  4  0
 47 38  4  0
 45 40  4  0
  1 59  1  0
  2 60  1  0
  3 61  1  0
  5 62  1  0
  7 63  1  0
 10 64  1  0
 12 65  1  0
 14 66  1  0
 15 67  1  0
 16 68  1  0
 17 69  1  0
 20 70  1  0
 21 71  1  0
 23 72  1  0
 25 73  1  0
 27 74  1  0
 29 75  1  0
 30 76  1  0
 33 77  1  0
 34 78  1  0
 35 79  1  0
 37 80  1  0
 39 81  1  0
 41 82  1  0
 42 83  1  0
 43 84  1  0
 44 85  1  0
 46 86  1  0
 48 87  1  0
 50 88  1  0
 52 89  1  0
 54 90  1  0
 56 91  1  0
 58 92  1  0
M  END
