
     RDKit          3D

 92104  0  0  0  0  0  0  0  0999 V2000
    9.3569   -5.4267   -0.7823 C   0  0  0  0  0  0  0  0  0  0  0  0
    8.2021   -5.1142   -1.4924 C   0  0  0  0  0  0  0  0  0  0  0  0
    7.5741   -3.8839   -1.2933 C   0  0  0  0  0  0  0  0  0  0  0  0
    8.0934   -2.9502   -0.3805 C   0  0  0  0  0  0  0  0  0  0  0  0
    7.4750   -1.7059   -0.1653 C   0  0  0  0  0  0  0  0  0  0  0  0
    7.9789   -0.7469    0.7507 C   0  0  0  0  0  0  0  0  0  0  0  0
    9.1505   -1.0867    1.4588 C   0  0  0  0  0  0  0  0  0  0  0  0
    9.7729   -2.3302    1.2468 C   0  0  0  0  0  0  0  0  0  0  0  0
    9.2606   -3.2666    0.3373 C   0  0  0  0  0  0  0  0  0  0  0  0
    9.8835   -4.5087    0.1275 C   0  0  0  0  0  0  0  0  0  0  0  0
    9.6962   -0.1815    2.3775 C   0  0  0  0  0  0  0  0  0  0  0  0
    9.1129    1.0671    2.6231 C   0  0  0  0  0  0  0  0  0  0  0  0
    9.6968    1.9433    3.5552 C   0  0  0  0  0  0  0  0  0  0  0  0
    9.1371    3.1914    3.8193 C   0  0  0  0  0  0  0  0  0  0  0  0
    7.9843    3.5796    3.1535 C   0  0  0  0  0  0  0  0  0  0  0  0
    7.3953    2.7177    2.2254 C   0  0  0  0  0  0  0  0  0  0  0  0
    7.9389    1.4410    1.9326 C   0  0  0  0  0  0  0  0  0  0  0  0
    7.3681    0.5269    0.9893 C   0  0  0  0  0  0  0  0  0  0  0  0
    6.1377    0.9013    0.2585 C   0  0  0  0  0  0  0  0  0  0  0  0
    6.2111    1.5688   -0.9705 C   0  0  0  0  0  0  0  0  0  0  0  0
    5.0477    1.9259   -1.6559 C   0  0  0  0  0  0  0  0  0  0  0  0
    3.7830    1.6240   -1.1281 C   0  0  0  0  0  0  0  0  0  0  0  0
    2.6041    1.9797   -1.8036 C   0  0  0  0  0  0  0  0  0  0  0  0
    1.3374    1.6796   -1.2746 C   0  0  0  0  0  0  0  0  0  0  0  0
    0.1582    2.0375   -1.9497 C   0  0  0  0  0  0  0  0  0  0  0  0
   -1.1089    1.7382   -1.4218 C   0  0  0  0  0  0  0  0  0  0  0  0
   -2.2879    2.0959   -2.0977 C   0  0  0  0  0  0  0  0  0  0  0  0
   -3.5542    1.7949   -1.5701 C   0  0  0  0  0  0  0  0  0  0  0  0
   -4.7318    2.1497   -2.2459 C   0  0  0  0  0  0  0  0  0  0  0  0
   -5.9834    1.8393   -1.7096 C   0  0  0  0  0  0  0  0  0  0  0  0
   -6.0872    1.1684   -0.4848 C   0  0  0  0  0  0  0  0  0  0  0  0
   -7.4110    0.8298    0.0812 C   0  0  0  0  0  0  0  0  0  0  0  0
   -8.0770    1.7626    0.9397 C   0  0  0  0  0  0  0  0  0  0  0  0
   -7.5432    3.0260    1.2999 C   0  0  0  0  0  0  0  0  0  0  0  0
   -8.2259    3.9071    2.1419 C   0  0  0  0  0  0  0  0  0  0  0  0
   -9.4662    3.5520    2.6503 C   0  0  0  0  0  0  0  0  0  0  0  0
  -10.0190    2.3174    2.3162 C   0  0  0  0  0  0  0  0  0  0  0  0
   -9.3407    1.4215    1.4705 C   0  0  0  0  0  0  0  0  0  0  0  0
   -9.9176    0.1857    1.1528 C   0  0  0  0  0  0  0  0  0  0  0  0
   -9.2780   -0.7388    0.3172 C   0  0  0  0  0  0  0  0  0  0  0  0
   -9.8954   -1.9697    0.0292 C   0  0  0  0  0  0  0  0  0  0  0  0
   -9.2889   -2.9244   -0.8006 C   0  0  0  0  0  0  0  0  0  0  0  0
   -9.9061   -4.1544   -1.0861 C   0  0  0  0  0  0  0  0  0  0  0  0
   -9.2845   -5.0907   -1.9139 C   0  0  0  0  0  0  0  0  0  0  0  0
   -8.0393   -4.8087   -2.4665 C   0  0  0  0  0  0  0  0  0  0  0  0
   -7.4158   -3.5907   -2.1910 C   0  0  0  0  0  0  0  0  0  0  0  0
   -8.0303   -2.6393   -1.3590 C   0  0  0  0  0  0  0  0  0  0  0  0
   -7.4177   -1.4074   -1.0693 C   0  0  0  0  0  0  0  0  0  0  0  0
   -8.0156   -0.4310   -0.2313 C   0  0  0  0  0  0  0  0  0  0  0  0
   -4.9092    0.8161    0.1934 C   0  0  0  0  0  0  0  0  0  0  0  0
   -3.6436    1.1203   -0.3350 C   0  0  0  0  0  0  0  0  0  0  0  0
   -2.4651    0.7643    0.3406 C   0  0  0  0  0  0  0  0  0  0  0  0
   -1.1988    1.0646   -0.1881 C   0  0  0  0  0  0  0  0  0  0  0  0
   -0.0198    0.7069    0.4871 C   0  0  0  0  0  0  0  0  0  0  0  0
    1.2475    1.0060   -0.0410 C   0  0  0  0  0  0  0  0  0  0  0  0
    2.4267    0.6487    0.6346 C   0  0  0  0  0  0  0  0  0  0  0  0
    3.6932    0.9503    0.1073 C   0  0  0  0  0  0  0  0  0  0  0  0
    4.8722    0.5965    0.7855 C   0  0  0  0  0  0  0  0  0  0  0  0
    9.8482   -6.3840   -0.9347 H   0  0  0  0  0  0  0  0  0  0  0  0
    7.7882   -5.8266   -2.2011 H   0  0  0  0  0  0  0  0  0  0  0  0
    6.6717   -3.6567   -1.8570 H   0  0  0  0  0  0  0  0  0  0  0  0
    6.5719   -1.4818   -0.7314 H   0  0  0  0  0  0  0  0  0  0  0  0
   10.6766   -2.5762    1.8022 H   0  0  0  0  0  0  0  0  0  0  0  0
   10.7866   -4.7701    0.6744 H   0  0  0  0  0  0  0  0  0  0  0  0
   10.6012   -0.4566    2.9178 H   0  0  0  0  0  0  0  0  0  0  0  0
   10.6014    1.6566    4.0877 H   0  0  0  0  0  0  0  0  0  0  0  0
    9.6015    3.8559    4.5427 H   0  0  0  0  0  0  0  0  0  0  0  0
    7.5382    4.5507    3.3512 H   0  0  0  0  0  0  0  0  0  0  0  0
    6.4915    3.0605    1.7249 H   0  0  0  0  0  0  0  0  0  0  0  0
    7.1808    1.8153   -1.3989 H   0  0  0  0  0  0  0  0  0  0  0  0
    5.1389    2.4447   -2.6076 H   0  0  0  0  0  0  0  0  0  0  0  0
    2.6744    2.5007   -2.7567 H   0  0  0  0  0  0  0  0  0  0  0  0
    0.2285    2.5581   -2.9031 H   0  0  0  0  0  0  0  0  0  0  0  0
   -2.2192    2.6169   -3.0510 H   0  0  0  0  0  0  0  0  0  0  0  0
   -4.6853    2.6701   -3.1999 H   0  0  0  0  0  0  0  0  0  0  0  0
   -6.8829    2.1219   -2.2534 H   0  0  0  0  0  0  0  0  0  0  0  0
   -6.5722    3.3423    0.9228 H   0  0  0  0  0  0  0  0  0  0  0  0
   -7.7832    4.8665    2.3961 H   0  0  0  0  0  0  0  0  0  0  0  0
  -10.0040    4.2316    3.3058 H   0  0  0  0  0  0  0  0  0  0  0  0
  -10.9929    2.0565    2.7259 H   0  0  0  0  0  0  0  0  0  0  0  0
  -10.8926   -0.0641    1.5699 H   0  0  0  0  0  0  0  0  0  0  0  0
  -10.8701   -2.1914    0.4610 H   0  0  0  0  0  0  0  0  0  0  0  0
  -10.8797   -4.3917   -0.6632 H   0  0  0  0  0  0  0  0  0  0  0  0
   -9.7731   -6.0379   -2.1263 H   0  0  0  0  0  0  0  0  0  0  0  0
   -7.5514   -5.5344   -3.1118 H   0  0  0  0  0  0  0  0  0  0  0  0
   -6.4419   -3.3868   -2.6313 H   0  0  0  0  0  0  0  0  0  0  0  0
   -6.4430   -1.2075   -1.5126 H   0  0  0  0  0  0  0  0  0  0  0  0
   -4.9875    0.2939    1.1460 H   0  0  0  0  0  0  0  0  0  0  0  0
   -2.5361    0.2432    1.2940 H   0  0  0  0  0  0  0  0  0  0  0  0
   -0.0902    0.1866    1.4409 H   0  0  0  0  0  0  0  0  0  0  0  0
    2.3595    0.1271    1.5879 H   0  0  0  0  0  0  0  0  0  0  0  0
    4.8122    0.0772    1.7411 H   0  0  0  0  0  0  0  0  0  0  0  0
  1  2  4  0
  2  3  4  0
  3  4  4  0
  4  5  4  0
  5  6  4  0
  6  7  4  0
  7  8  4  0
  8  9  4  0
  9 10  4  0
  7 11  4  0
 11 12  4  0
 12 13  4  0
 13 14  4  0
 14 15  4  0
 15 16  4  0
 16 17  4  0
 17 18  4  0
 18 19  1  0
 19 20  4  0
 20 21  4  0
 21 22  4  0
 22 23  4  0
 23 24  4  0
 24 25  4  0
 25 26  4  0
 26 27  4  0
 27 28  4  0
 28 29  4  0
 29 30  4  0
 30 31  4  0
 31 32  1  0
 32 33  4  0
 33 34  4  0
 34 35  4  0
 35 36  4  0
 36 37  4  0
 37 38  4  0
 38 39  4  0
 39 40  4  0
 40 41  4  0
 41 42  4  0
 42 43  4  0
 43 44  4  0
 44 45  4  0
 45 46  4  0
 46 47  4  0
 47 48  4  0
 48 49  4  0
 31 50  4  0
 50 51  4  0
 51 52  4  0
 52 53  4  0
 53 54  4  0
 54 55  4  0
 55 56  4  0
 56 57  4  0
 57 58  4  0
 10  1  4  0
 17 12  4  0
 58 19  4  0
  9  4  4  0
 57 22  4  0
 18  6  4  0
 55 24  4  0
 53 26  4  0
 51 28  4  0
 49 32  4  0
 38 33  4  0
 49 40  4  0
 47 42  4  0
  1 59  1  0
  2 60  1  0
  3 61  1  0
  5 62  1  0
  8 63  1  0
 10 64  1  0
 11 65  1  0
 13 66  1  0
 14 67  1  0
 15 68  1  0
 16 69  1  0
 20 70  1  0
 21 71  1  0
 23 72  1  0
 25 73  1  0
 27 74  1  0
 29 75  1  0
 30 76  1  0
 34 77  1  0
 35 78  1  0
 36 79  1  0
 37 80  1  0
 39 81  1  0
 41 82  1  0
 43 83  1  0
 44 84  1  0
 45 85  1  0
 46 86  1  0
 48 87  1  0
 50 88  1  0
 52 89  1  0
 54 90  1  0
 56 91  1  0
 58 92  1  0
M  END
