
     RDKit          3D

 92104  0  0  0  0  0  0  0  0999 V2000
   16.4570    2.7412    0.9020 C   0  0  0  0  0  0  0  0  0  0  0  0
   16.2190    2.9390   -0.4545 C   0  0  0  0  0  0  0  0  0  0  0  0
   15.0079    2.5314   -1.0159 C   0  0  0  0  0  0  0  0  0  0  0  0
   14.0190    1.9204   -0.2268 C   0  0  0  0  0  0  0  0  0  0  0  0
   12.7950    1.5045   -0.7767 C   0  0  0  0  0  0  0  0  0  0  0  0
   11.8062    0.8933    0.0132 C   0  0  0  0  0  0  0  0  0  0  0  0
   10.5821    0.4767   -0.5373 C   0  0  0  0  0  0  0  0  0  0  0  0
    9.5930   -0.1353    0.2511 C   0  0  0  0  0  0  0  0  0  0  0  0
    8.3678   -0.5538   -0.3002 C   0  0  0  0  0  0  0  0  0  0  0  0
    7.3742   -1.1648    0.4838 C   0  0  0  0  0  0  0  0  0  0  0  0
    6.0999   -1.5986   -0.1106 C   0  0  0  0  0  0  0  0  0  0  0  0
    6.0751   -2.4788   -1.2007 C   0  0  0  0  0  0  0  0  0  0  0  0
    4.8644   -2.8936   -1.7632 C   0  0  0  0  0  0  0  0  0  0  0  0
    3.6416   -2.4371   -1.2505 C   0  0  0  0  0  0  0  0  0  0  0  0
    2.4162   -2.8441   -1.8040 C   0  0  0  0  0  0  0  0  0  0  0  0
    1.1916   -2.3848   -1.2902 C   0  0  0  0  0  0  0  0  0  0  0  0
   -0.0346   -2.7908   -1.8433 C   0  0  0  0  0  0  0  0  0  0  0  0
   -1.2594   -2.3311   -1.3302 C   0  0  0  0  0  0  0  0  0  0  0  0
   -2.4854   -2.7364   -1.8843 C   0  0  0  0  0  0  0  0  0  0  0  0
   -3.7091   -2.2760   -1.3708 C   0  0  0  0  0  0  0  0  0  0  0  0
   -4.9328   -2.6784   -1.9247 C   0  0  0  0  0  0  0  0  0  0  0  0
   -6.1421   -2.2107   -1.4024 C   0  0  0  0  0  0  0  0  0  0  0  0
   -6.1639   -1.3306   -0.3123 C   0  0  0  0  0  0  0  0  0  0  0  0
   -7.4368   -0.8405    0.2382 C   0  0  0  0  0  0  0  0  0  0  0  0
   -8.3660   -0.1711   -0.5762 C   0  0  0  0  0  0  0  0  0  0  0  0
   -9.5899    0.3010   -0.0682 C   0  0  0  0  0  0  0  0  0  0  0  0
  -10.5145    0.9709   -0.8868 C   0  0  0  0  0  0  0  0  0  0  0  0
  -11.7379    1.4406   -0.3798 C   0  0  0  0  0  0  0  0  0  0  0  0
  -12.6623    2.1096   -1.1999 C   0  0  0  0  0  0  0  0  0  0  0  0
  -13.8859    2.5784   -0.6937 C   0  0  0  0  0  0  0  0  0  0  0  0
  -14.8104    3.2471   -1.5132 C   0  0  0  0  0  0  0  0  0  0  0  0
  -16.0223    3.7069   -0.9955 C   0  0  0  0  0  0  0  0  0  0  0  0
  -16.3253    3.5042    0.3473 C   0  0  0  0  0  0  0  0  0  0  0  0
  -15.4168    2.8415    1.1742 C   0  0  0  0  0  0  0  0  0  0  0  0
  -14.1930    2.3730    0.6680 C   0  0  0  0  0  0  0  0  0  0  0  0
  -13.2680    1.7045    1.4871 C   0  0  0  0  0  0  0  0  0  0  0  0
  -12.0442    1.2359    0.9799 C   0  0  0  0  0  0  0  0  0  0  0  0
  -11.1190    0.5676    1.7995 C   0  0  0  0  0  0  0  0  0  0  0  0
   -9.8960    0.0985    1.2922 C   0  0  0  0  0  0  0  0  0  0  0  0
   -8.9716   -0.5678    2.1094 C   0  0  0  0  0  0  0  0  0  0  0  0
   -7.7592   -1.0295    1.5886 C   0  0  0  0  0  0  0  0  0  0  0  0
   -4.9351   -0.9305    0.2394 C   0  0  0  0  0  0  0  0  0  0  0  0
   -3.7088   -1.3899   -0.2752 C   0  0  0  0  0  0  0  0  0  0  0  0
   -2.4825   -0.9843    0.2776 C   0  0  0  0  0  0  0  0  0  0  0  0
   -1.2579   -1.4439   -0.2365 C   0  0  0  0  0  0  0  0  0  0  0  0
   -0.0317   -1.0378    0.3165 C   0  0  0  0  0  0  0  0  0  0  0  0
    1.1930   -1.4972   -0.1968 C   0  0  0  0  0  0  0  0  0  0  0  0
    2.4189   -1.0907    0.3568 C   0  0  0  0  0  0  0  0  0  0  0  0
    3.6439   -1.5502   -0.1556 C   0  0  0  0  0  0  0  0  0  0  0  0
    4.8716   -1.1440    0.3991 C   0  0  0  0  0  0  0  0  0  0  0  0
    7.6339   -1.3506    1.8483 C   0  0  0  0  0  0  0  0  0  0  0  0
    8.8462   -0.9418    2.4120 C   0  0  0  0  0  0  0  0  0  0  0  0
    9.8344   -0.3331    1.6250 C   0  0  0  0  0  0  0  0  0  0  0  0
   11.0580    0.0829    2.1759 C   0  0  0  0  0  0  0  0  0  0  0  0
   12.0472    0.6935    1.3866 C   0  0  0  0  0  0  0  0  0  0  0  0
   13.2714    1.1093    1.9376 C   0  0  0  0  0  0  0  0  0  0  0  0
   14.2604    1.7200    1.1488 C   0  0  0  0  0  0  0  0  0  0  0  0
   15.4843    2.1357    1.6991 C   0  0  0  0  0  0  0  0  0  0  0  0
   17.3992    3.0576    1.3415 H   0  0  0  0  0  0  0  0  0  0  0  0
   16.9749    3.4103   -1.0771 H   0  0  0  0  0  0  0  0  0  0  0  0
   14.8404    2.6947   -2.0782 H   0  0  0  0  0  0  0  0  0  0  0  0
   12.6092    1.6594   -1.8379 H   0  0  0  0  0  0  0  0  0  0  0  0
   10.3958    0.6314   -1.5987 H   0  0  0  0  0  0  0  0  0  0  0  0
    8.1778   -0.3912   -1.3603 H   0  0  0  0  0  0  0  0  0  0  0  0
    7.0059   -2.8613   -1.6155 H   0  0  0  0  0  0  0  0  0  0  0  0
    4.8865   -3.5809   -2.6060 H   0  0  0  0  0  0  0  0  0  0  0  0
    2.4161   -3.5300   -2.6494 H   0  0  0  0  0  0  0  0  0  0  0  0
   -0.0358   -3.4768   -2.6885 H   0  0  0  0  0  0  0  0  0  0  0  0
   -2.4879   -3.4215   -2.7303 H   0  0  0  0  0  0  0  0  0  0  0  0
   -4.9569   -3.3638   -2.7689 H   0  0  0  0  0  0  0  0  0  0  0  0
   -7.0746   -2.5510   -1.8488 H   0  0  0  0  0  0  0  0  0  0  0  0
   -8.1249   -0.0057   -1.6254 H   0  0  0  0  0  0  0  0  0  0  0  0
  -10.2777    1.1293   -1.9375 H   0  0  0  0  0  0  0  0  0  0  0  0
  -12.4258    2.2684   -2.2504 H   0  0  0  0  0  0  0  0  0  0  0  0
  -14.5914    3.4150   -2.5653 H   0  0  0  0  0  0  0  0  0  0  0  0
  -16.7281    4.2226   -1.6413 H   0  0  0  0  0  0  0  0  0  0  0  0
  -17.2684    3.8612    0.7528 H   0  0  0  0  0  0  0  0  0  0  0  0
  -15.6718    2.6927    2.2211 H   0  0  0  0  0  0  0  0  0  0  0  0
  -13.5051    1.5463    2.5375 H   0  0  0  0  0  0  0  0  0  0  0  0
  -11.3547    0.4097    2.8504 H   0  0  0  0  0  0  0  0  0  0  0  0
   -9.1884   -0.7375    3.1618 H   0  0  0  0  0  0  0  0  0  0  0  0
   -7.0692   -1.5532    2.2474 H   0  0  0  0  0  0  0  0  0  0  0  0
   -4.9346   -0.2377    1.0798 H   0  0  0  0  0  0  0  0  0  0  0  0
   -2.4813   -0.2982    1.1228 H   0  0  0  0  0  0  0  0  0  0  0  0
   -0.0305   -0.3514    1.1615 H   0  0  0  0  0  0  0  0  0  0  0  0
    2.4205   -0.4040    1.2016 H   0  0  0  0  0  0  0  0  0  0  0  0
    4.8731   -0.4502    1.2387 H   0  0  0  0  0  0  0  0  0  0  0  0
    6.8936   -1.8306    2.4855 H   0  0  0  0  0  0  0  0  0  0  0  0
    9.0120   -1.1073    3.4743 H   0  0  0  0  0  0  0  0  0  0  0  0
   11.2435   -0.0713    3.2374 H   0  0  0  0  0  0  0  0  0  0  0  0
   13.4581    0.9551    2.9988 H   0  0  0  0  0  0  0  0  0  0  0  0
   15.6891    1.9899    2.7573 H   0  0  0  0  0  0  0  0  0  0  0  0
  1  2  4  0
  2  3  4  0
  3  4  4  0
  4  5  4  0
  5  6  4  0
  6  7  4  0
  7  8  4  0
  8  9  4  0
  9 10  4  0
 10 11  1  0
 11 12  4  0
 12 13  4  0
 13 14  4  0
 14 15  4  0
 15 16  4  0
 16 17  4  0
 17 18  4  0
 18 19  4  0
 19 20  4  0
 20 21  4  0
 21 22  4  0
 22 23  4  0
 23 24  1  0
 24 25  4  0
 25 26  4  0
 26 27  4  0
 27 28  4  0
 28 29  4  0
 29 30  4  0
 30 31  4  0
 31 32  4  0
 32 33  4  0
 33 34  4  0
 34 35  4  0
 35 36  4  0
 36 37  4  0
 37 38  4  0
 38 39  4  0
 39 40  4  0
 40 41  4  0
 23 42  4  0
 42 43  4  0
 43 44  4  0
 44 45  4  0
 45 46  4  0
 46 47  4  0
 47 48  4  0
 48 49  4  0
 49 50  4  0
 10 51  4  0
 51 52  4  0
 52 53  4  0
 53 54  4  0
 54 55  4  0
 55 56  4  0
 56 57  4  0
 57 58  4  0
 58  1  4  0
 57  4  4  0
 55  6  4  0
 53  8  4  0
 50 11  4  0
 49 14  4  0
 47 16  4  0
 45 18  4  0
 43 20  4  0
 41 24  4  0
 39 26  4  0
 37 28  4  0
 35 30  4  0
  1 59  1  0
  2 60  1  0
  3 61  1  0
  5 62  1  0
  7 63  1  0
  9 64  1  0
 12 65  1  0
 13 66  1  0
 15 67  1  0
 17 68  1  0
 19 69  1  0
 21 70  1  0
 22 71  1  0
 25 72  1  0
 27 73  1  0
 29 74  1  0
 31 75  1  0
 32 76  1  0
 33 77  1  0
 34 78  1  0
 36 79  1  0
 38 80  1  0
 40 81  1  0
 41 82  1  0
 42 83  1  0
 44 84  1  0
 46 85  1  0
 48 86  1  0
 50 87  1  0
 51 88  1  0
 52 89  1  0
 54 90  1  0
 56 91  1  0
 58 92  1  0
M  END
