
     RDKit          3D

104118  0  0  0  0  0  0  0  0999 V2000
    8.8108   -3.9064   -7.4222 C   0  0  0  0  0  0  0  0  0  0  0  0
    9.5446   -3.5891   -6.2781 C   0  0  0  0  0  0  0  0  0  0  0  0
    9.0004   -2.7622   -5.2815 C   0  0  0  0  0  0  0  0  0  0  0  0
    9.7260   -2.4339   -4.1244 C   0  0  0  0  0  0  0  0  0  0  0  0
    9.1807   -1.6071   -3.1275 C   0  0  0  0  0  0  0  0  0  0  0  0
    9.9052   -1.2786   -1.9691 C   0  0  0  0  0  0  0  0  0  0  0  0
    9.3587   -0.4532   -0.9713 C   0  0  0  0  0  0  0  0  0  0  0  0
   10.0790   -0.1235    0.1876 C   0  0  0  0  0  0  0  0  0  0  0  0
    9.5331    0.6992    1.1881 C   0  0  0  0  0  0  0  0  0  0  0  0
   10.2830    1.0084    2.3330 C   0  0  0  0  0  0  0  0  0  0  0  0
    9.7591    1.8208    3.3343 C   0  0  0  0  0  0  0  0  0  0  0  0
    8.4735    2.3347    3.2038 C   0  0  0  0  0  0  0  0  0  0  0  0
    7.6903    2.0465    2.0713 C   0  0  0  0  0  0  0  0  0  0  0  0
    6.3353    2.6167    2.0010 C   0  0  0  0  0  0  0  0  0  0  0  0
    6.1331    3.9256    1.5482 C   0  0  0  0  0  0  0  0  0  0  0  0
    4.8458    4.4638    1.4777 C   0  0  0  0  0  0  0  0  0  0  0  0
    3.7291    3.7051    1.8602 C   0  0  0  0  0  0  0  0  0  0  0  0
    2.4283    4.2305    1.7921 C   0  0  0  0  0  0  0  0  0  0  0  0
    1.3102    3.4698    2.1739 C   0  0  0  0  0  0  0  0  0  0  0  0
    0.0085    3.9940    2.1040 C   0  0  0  0  0  0  0  0  0  0  0  0
   -1.1099    3.2341    2.4860 C   0  0  0  0  0  0  0  0  0  0  0  0
   -2.4116    3.7586    2.4153 C   0  0  0  0  0  0  0  0  0  0  0  0
   -3.5290    2.9984    2.7974 C   0  0  0  0  0  0  0  0  0  0  0  0
   -4.8288    3.5217    2.7257 C   0  0  0  0  0  0  0  0  0  0  0  0
   -5.9301    2.7522    3.1079 C   0  0  0  0  0  0  0  0  0  0  0  0
   -5.7590    1.4415    3.5688 C   0  0  0  0  0  0  0  0  0  0  0  0
   -6.9191    0.6291    3.9669 C   0  0  0  0  0  0  0  0  0  0  0  0
   -7.6387   -0.1793    3.0390 C   0  0  0  0  0  0  0  0  0  0  0  0
   -7.3041   -0.2805    1.6672 C   0  0  0  0  0  0  0  0  0  0  0  0
   -8.0320   -1.0819    0.7701 C   0  0  0  0  0  0  0  0  0  0  0  0
   -7.6837   -1.1667   -0.5888 C   0  0  0  0  0  0  0  0  0  0  0  0
   -8.4131   -1.9659   -1.4851 C   0  0  0  0  0  0  0  0  0  0  0  0
   -8.0649   -2.0495   -2.8440 C   0  0  0  0  0  0  0  0  0  0  0  0
   -8.7952   -2.8479   -3.7398 C   0  0  0  0  0  0  0  0  0  0  0  0
   -8.4479   -2.9318   -5.0985 C   0  0  0  0  0  0  0  0  0  0  0  0
   -9.1839   -3.7294   -5.9759 C   0  0  0  0  0  0  0  0  0  0  0  0
  -10.2758   -4.4530   -5.5069 C   0  0  0  0  0  0  0  0  0  0  0  0
  -10.6334   -4.3802   -4.1597 C   0  0  0  0  0  0  0  0  0  0  0  0
   -9.9025   -3.5819   -3.2641 C   0  0  0  0  0  0  0  0  0  0  0  0
  -10.2492   -3.4979   -1.9054 C   0  0  0  0  0  0  0  0  0  0  0  0
   -9.5179   -2.6988   -1.0102 C   0  0  0  0  0  0  0  0  0  0  0  0
   -9.8643   -2.6142    0.3490 C   0  0  0  0  0  0  0  0  0  0  0  0
   -9.1334   -1.8140    1.2441 C   0  0  0  0  0  0  0  0  0  0  0  0
   -9.4770   -1.7274    2.6023 C   0  0  0  0  0  0  0  0  0  0  0  0
   -8.7495   -0.9262    3.4992 C   0  0  0  0  0  0  0  0  0  0  0  0
   -9.1222   -0.8644    4.8506 C   0  0  0  0  0  0  0  0  0  0  0  0
   -8.4146   -0.0760    5.7531 C   0  0  0  0  0  0  0  0  0  0  0  0
   -7.3227    0.6645    5.3139 C   0  0  0  0  0  0  0  0  0  0  0  0
   -4.4586    0.9190    3.6446 C   0  0  0  0  0  0  0  0  0  0  0  0
   -3.3407    1.6807    3.2627 C   0  0  0  0  0  0  0  0  0  0  0  0
   -2.0393    1.1572    3.3332 C   0  0  0  0  0  0  0  0  0  0  0  0
   -0.9218    1.9177    2.9500 C   0  0  0  0  0  0  0  0  0  0  0  0
    0.3796    1.3933    3.0192 C   0  0  0  0  0  0  0  0  0  0  0  0
    1.4979    2.1528    2.6364 C   0  0  0  0  0  0  0  0  0  0  0  0
    2.7990    1.6270    2.7047 C   0  0  0  0  0  0  0  0  0  0  0  0
    3.9172    2.3862    2.3221 C   0  0  0  0  0  0  0  0  0  0  0  0
    5.2186    1.8591    2.3884 C   0  0  0  0  0  0  0  0  0  0  0  0
    8.2241    1.2176    1.0413 C   0  0  0  0  0  0  0  0  0  0  0  0
    7.5145    0.8799   -0.1360 C   0  0  0  0  0  0  0  0  0  0  0  0
    8.0597    0.0557   -1.1357 C   0  0  0  0  0  0  0  0  0  0  0  0
    7.3344   -0.2706   -2.2942 C   0  0  0  0  0  0  0  0  0  0  0  0
    7.8786   -1.0964   -3.2920 C   0  0  0  0  0  0  0  0  0  0  0  0
    7.1518   -1.4237   -4.4493 C   0  0  0  0  0  0  0  0  0  0  0  0
    7.6958   -2.2502   -5.4463 C   0  0  0  0  0  0  0  0  0  0  0  0
    6.9699   -2.5785   -6.6034 C   0  0  0  0  0  0  0  0  0  0  0  0
    7.5245   -3.4015   -7.5847 C   0  0  0  0  0  0  0  0  0  0  0  0
    9.2447   -4.5474   -8.1852 H   0  0  0  0  0  0  0  0  0  0  0  0
   10.5484   -3.9936   -6.1695 H   0  0  0  0  0  0  0  0  0  0  0  0
   10.7323   -2.8288   -3.9977 H   0  0  0  0  0  0  0  0  0  0  0  0
   10.9117   -1.6729   -1.8414 H   0  0  0  0  0  0  0  0  0  0  0  0
   11.0866   -0.5169    0.3134 H   0  0  0  0  0  0  0  0  0  0  0  0
   11.2903    0.6148    2.4540 H   0  0  0  0  0  0  0  0  0  0  0  0
   10.3514    2.0514    4.2158 H   0  0  0  0  0  0  0  0  0  0  0  0
    8.0726    2.9657    3.9954 H   0  0  0  0  0  0  0  0  0  0  0  0
    6.9821    4.5332    1.2411 H   0  0  0  0  0  0  0  0  0  0  0  0
    4.7230    5.4832    1.1187 H   0  0  0  0  0  0  0  0  0  0  0  0
    2.2839    5.2488    1.4353 H   0  0  0  0  0  0  0  0  0  0  0  0
   -0.1372    5.0118    1.7461 H   0  0  0  0  0  0  0  0  0  0  0  0
   -2.5581    4.7759    2.0568 H   0  0  0  0  0  0  0  0  0  0  0  0
   -4.9965    4.5357    2.3696 H   0  0  0  0  0  0  0  0  0  0  0  0
   -6.9287    3.1796    3.0401 H   0  0  0  0  0  0  0  0  0  0  0  0
   -6.4523    0.2797    1.2835 H   0  0  0  0  0  0  0  0  0  0  0  0
   -6.8296   -0.5994   -0.9549 H   0  0  0  0  0  0  0  0  0  0  0  0
   -7.2108   -1.4832   -3.2111 H   0  0  0  0  0  0  0  0  0  0  0  0
   -7.5976   -2.3737   -5.4841 H   0  0  0  0  0  0  0  0  0  0  0  0
   -8.9037   -3.7847   -7.0246 H   0  0  0  0  0  0  0  0  0  0  0  0
  -10.8505   -5.0748   -6.1884 H   0  0  0  0  0  0  0  0  0  0  0  0
  -11.4902   -4.9534   -3.8126 H   0  0  0  0  0  0  0  0  0  0  0  0
  -11.1033   -4.0642   -1.5387 H   0  0  0  0  0  0  0  0  0  0  0  0
  -10.7182   -3.1807    0.7165 H   0  0  0  0  0  0  0  0  0  0  0  0
  -10.3301   -2.2960    2.9689 H   0  0  0  0  0  0  0  0  0  0  0  0
   -9.9747   -1.4352    5.2135 H   0  0  0  0  0  0  0  0  0  0  0  0
   -8.7148   -0.0379    6.7969 H   0  0  0  0  0  0  0  0  0  0  0  0
   -6.7779    1.2797    6.0282 H   0  0  0  0  0  0  0  0  0  0  0  0
   -4.3210   -0.1002    4.0032 H   0  0  0  0  0  0  0  0  0  0  0  0
   -1.8948    0.1396    3.6923 H   0  0  0  0  0  0  0  0  0  0  0  0
    0.5248    0.3755    3.3774 H   0  0  0  0  0  0  0  0  0  0  0  0
    2.9447    0.6086    3.0609 H   0  0  0  0  0  0  0  0  0  0  0  0
    5.3715    0.8404    2.7423 H   0  0  0  0  0  0  0  0  0  0  0  0
    6.5078    1.2691   -0.2821 H   0  0  0  0  0  0  0  0  0  0  0  0
    6.3277    0.1247   -2.4200 H   0  0  0  0  0  0  0  0  0  0  0  0
    6.1454   -1.0287   -4.5760 H   0  0  0  0  0  0  0  0  0  0  0  0
    5.9631   -2.1935   -6.7486 H   0  0  0  0  0  0  0  0  0  0  0  0
    6.9514   -3.6472   -8.4749 H   0  0  0  0  0  0  0  0  0  0  0  0
  1  2  4  0
  2  3  4  0
  3  4  4  0
  4  5  4  0
  5  6  4  0
  6  7  4  0
  7  8  4  0
  8  9  4  0
  9 10  4  0
 10 11  4  0
 11 12  4  0
 12 13  4  0
 13 14  1  0
 14 15  4  0
 15 16  4  0
 16 17  4  0
 17 18  4  0
 18 19  4  0
 19 20  4  0
 20 21  4  0
 21 22  4  0
 22 23  4  0
 23 24  4  0
 24 25  4  0
 25 26  4  0
 26 27  1  0
 27 28  4  0
 28 29  4  0
 29 30  4  0
 30 31  4  0
 31 32  4  0
 32 33  4  0
 33 34  4  0
 34 35  4  0
 35 36  4  0
 36 37  4  0
 37 38  4  0
 38 39  4  0
 39 40  4  0
 40 41  4  0
 41 42  4  0
 42 43  4  0
 43 44  4  0
 44 45  4  0
 45 46  4  0
 46 47  4  0
 47 48  4  0
 26 49  4  0
 49 50  4  0
 50 51  4  0
 51 52  4  0
 52 53  4  0
 53 54  4  0
 54 55  4  0
 55 56  4  0
 56 57  4  0
 13 58  4  0
 58 59  4  0
 59 60  4  0
 60 61  4  0
 61 62  4  0
 62 63  4  0
 63 64  4  0
 64 65  4  0
 65 66  4  0
 66  1  4  0
 64  3  4  0
 62  5  4  0
 60  7  4  0
 58  9  4  0
 57 14  4  0
 56 17  4  0
 54 19  4  0
 52 21  4  0
 50 23  4  0
 48 27  4  0
 45 28  4  0
 43 30  4  0
 41 32  4  0
 39 34  4  0
  1 67  1  0
  2 68  1  0
  4 69  1  0
  6 70  1  0
  8 71  1  0
 10 72  1  0
 11 73  1  0
 12 74  1  0
 15 75  1  0
 16 76  1  0
 18 77  1  0
 20 78  1  0
 22 79  1  0
 24 80  1  0
 25 81  1  0
 29 82  1  0
 31 83  1  0
 33 84  1  0
 35 85  1  0
 36 86  1  0
 37 87  1  0
 38 88  1  0
 40 89  1  0
 42 90  1  0
 44 91  1  0
 46 92  1  0
 47 93  1  0
 48 94  1  0
 49 95  1  0
 51 96  1  0
 53 97  1  0
 55 98  1  0
 57 99  1  0
 59100  1  0
 61101  1  0
 63102  1  0
 65103  1  0
 66104  1  0
M  END
