
     RDKit          3D

104118  0  0  0  0  0  0  0  0999 V2000
    9.4366   -4.8366   -2.3340 C   0  0  0  0  0  0  0  0  0  0  0  0
    8.2656   -4.4183   -2.9480 C   0  0  0  0  0  0  0  0  0  0  0  0
    7.6022   -3.2829   -2.4770 C   0  0  0  0  0  0  0  0  0  0  0  0
    8.0874   -2.5294   -1.3785 C   0  0  0  0  0  0  0  0  0  0  0  0
    9.2811   -2.9747   -0.7681 C   0  0  0  0  0  0  0  0  0  0  0  0
    9.9401   -4.1191   -1.2512 C   0  0  0  0  0  0  0  0  0  0  0  0
    9.8080   -2.2728    0.3229 C   0  0  0  0  0  0  0  0  0  0  0  0
    9.1859   -1.1289    0.8386 C   0  0  0  0  0  0  0  0  0  0  0  0
    9.7508   -0.4570    1.9377 C   0  0  0  0  0  0  0  0  0  0  0  0
    9.1599    0.6914    2.4857 C   0  0  0  0  0  0  0  0  0  0  0  0
    9.7258    1.3600    3.5850 C   0  0  0  0  0  0  0  0  0  0  0  0
    9.1291    2.5093    4.1293 C   0  0  0  0  0  0  0  0  0  0  0  0
    9.6929    3.1788    5.2280 C   0  0  0  0  0  0  0  0  0  0  0  0
    9.0870    4.3195    5.7568 C   0  0  0  0  0  0  0  0  0  0  0  0
    7.9106    4.8054    5.1944 C   0  0  0  0  0  0  0  0  0  0  0  0
    7.3384    4.1513    4.1024 C   0  0  0  0  0  0  0  0  0  0  0  0
    7.9364    3.0020    3.5591 C   0  0  0  0  0  0  0  0  0  0  0  0
    7.3736    2.3315    2.4608 C   0  0  0  0  0  0  0  0  0  0  0  0
    7.9730    1.1815    1.9186 C   0  0  0  0  0  0  0  0  0  0  0  0
    7.4120    0.5075    0.8197 C   0  0  0  0  0  0  0  0  0  0  0  0
    7.9937   -0.6555    0.2532 C   0  0  0  0  0  0  0  0  0  0  0  0
    7.4397   -1.3608   -0.8642 C   0  0  0  0  0  0  0  0  0  0  0  0
    6.1879   -0.8779   -1.4869 C   0  0  0  0  0  0  0  0  0  0  0  0
    6.2231    0.0299   -2.5526 C   0  0  0  0  0  0  0  0  0  0  0  0
    5.0390    0.4974   -3.1272 C   0  0  0  0  0  0  0  0  0  0  0  0
    3.7914    0.0688   -2.6484 C   0  0  0  0  0  0  0  0  0  0  0  0
    2.5918    0.5351   -3.2105 C   0  0  0  0  0  0  0  0  0  0  0  0
    1.3424    0.1087   -2.7291 C   0  0  0  0  0  0  0  0  0  0  0  0
    0.1421    0.5773   -3.2895 C   0  0  0  0  0  0  0  0  0  0  0  0
   -1.1079    0.1516   -2.8091 C   0  0  0  0  0  0  0  0  0  0  0  0
   -2.3078    0.6211   -3.3702 C   0  0  0  0  0  0  0  0  0  0  0  0
   -3.5571    0.1949   -2.8904 C   0  0  0  0  0  0  0  0  0  0  0  0
   -4.7549    0.6641   -3.4511 C   0  0  0  0  0  0  0  0  0  0  0  0
   -5.9897    0.2311   -2.9624 C   0  0  0  0  0  0  0  0  0  0  0  0
   -6.0563   -0.6824   -1.9029 C   0  0  0  0  0  0  0  0  0  0  0  0
   -7.3628   -1.1451   -1.3855 C   0  0  0  0  0  0  0  0  0  0  0  0
   -7.9950   -0.4373   -0.3120 C   0  0  0  0  0  0  0  0  0  0  0  0
   -7.4433    0.7115    0.3111 C   0  0  0  0  0  0  0  0  0  0  0  0
   -8.0834    1.3877    1.3655 C   0  0  0  0  0  0  0  0  0  0  0  0
   -7.5137    2.5236    1.9666 C   0  0  0  0  0  0  0  0  0  0  0  0
   -8.1557    3.1956    3.0201 C   0  0  0  0  0  0  0  0  0  0  0  0
   -7.5871    4.3305    3.6220 C   0  0  0  0  0  0  0  0  0  0  0  0
   -8.2381    4.9863    4.6681 C   0  0  0  0  0  0  0  0  0  0  0  0
   -9.4653    4.5165    5.1257 C   0  0  0  0  0  0  0  0  0  0  0  0
  -10.0431    3.3901    4.5378 C   0  0  0  0  0  0  0  0  0  0  0  0
   -9.4000    2.7192    3.4841 C   0  0  0  0  0  0  0  0  0  0  0  0
   -9.9672    1.5842    2.8814 C   0  0  0  0  0  0  0  0  0  0  0  0
   -9.3216    0.9141    1.8274 C   0  0  0  0  0  0  0  0  0  0  0  0
   -9.8832   -0.2201    1.2223 C   0  0  0  0  0  0  0  0  0  0  0  0
   -9.2396   -0.8939    0.1686 C   0  0  0  0  0  0  0  0  0  0  0  0
   -9.8363   -2.0233   -0.4059 C   0  0  0  0  0  0  0  0  0  0  0  0
   -9.2329   -2.7275   -1.4548 C   0  0  0  0  0  0  0  0  0  0  0  0
   -9.8691   -3.8570   -2.0000 C   0  0  0  0  0  0  0  0  0  0  0  0
   -9.2902   -4.5767   -3.0430 C   0  0  0  0  0  0  0  0  0  0  0  0
   -8.0652   -4.1756   -3.5545 C   0  0  0  0  0  0  0  0  0  0  0  0
   -7.4241   -3.0550   -3.0213 C   0  0  0  0  0  0  0  0  0  0  0  0
   -7.9855   -2.2995   -1.9607 C   0  0  0  0  0  0  0  0  0  0  0  0
   -4.8578   -1.1520   -1.3414 C   0  0  0  0  0  0  0  0  0  0  0  0
   -3.6083   -0.7243   -1.8221 C   0  0  0  0  0  0  0  0  0  0  0  0
   -2.4086   -1.1928   -1.2614 C   0  0  0  0  0  0  0  0  0  0  0  0
   -1.1589   -0.7660   -1.7419 C   0  0  0  0  0  0  0  0  0  0  0  0
    0.0414   -1.2345   -1.1813 C   0  0  0  0  0  0  0  0  0  0  0  0
    1.2914   -0.8080   -1.6612 C   0  0  0  0  0  0  0  0  0  0  0  0
    2.4914   -1.2753   -1.0987 C   0  0  0  0  0  0  0  0  0  0  0  0
    3.7404   -0.8478   -1.5780 C   0  0  0  0  0  0  0  0  0  0  0  0
    4.9397   -1.3114   -1.0112 C   0  0  0  0  0  0  0  0  0  0  0  0
    9.9585   -5.7189   -2.6944 H   0  0  0  0  0  0  0  0  0  0  0  0
    7.8631   -4.9704   -3.7932 H   0  0  0  0  0  0  0  0  0  0  0  0
    6.6862   -2.9885   -2.9862 H   0  0  0  0  0  0  0  0  0  0  0  0
   10.8598   -4.4635   -0.7825 H   0  0  0  0  0  0  0  0  0  0  0  0
   10.7288   -2.6281    0.7840 H   0  0  0  0  0  0  0  0  0  0  0  0
   10.6718   -0.8365    2.3781 H   0  0  0  0  0  0  0  0  0  0  0  0
   10.6457    0.9791    4.0245 H   0  0  0  0  0  0  0  0  0  0  0  0
   10.6119    2.8142    5.6814 H   0  0  0  0  0  0  0  0  0  0  0  0
    9.5342    4.8273    6.6073 H   0  0  0  0  0  0  0  0  0  0  0  0
    7.4371    5.6935    5.6046 H   0  0  0  0  0  0  0  0  0  0  0  0
    6.4186    4.5458    3.6762 H   0  0  0  0  0  0  0  0  0  0  0  0
    6.4529    2.7102    2.0200 H   0  0  0  0  0  0  0  0  0  0  0  0
    6.4911    0.9054    0.3952 H   0  0  0  0  0  0  0  0  0  0  0  0
    7.1788    0.3806   -2.9378 H   0  0  0  0  0  0  0  0  0  0  0  0
    5.1006    1.2039   -3.9521 H   0  0  0  0  0  0  0  0  0  0  0  0
    2.6312    1.2437   -4.0360 H   0  0  0  0  0  0  0  0  0  0  0  0
    0.1811    1.2862   -4.1147 H   0  0  0  0  0  0  0  0  0  0  0  0
   -2.2687    1.3307   -4.1949 H   0  0  0  0  0  0  0  0  0  0  0  0
   -4.7374    1.3733   -4.2757 H   0  0  0  0  0  0  0  0  0  0  0  0
   -6.9053    0.6096   -3.4129 H   0  0  0  0  0  0  0  0  0  0  0  0
   -6.4836    1.0959   -0.0319 H   0  0  0  0  0  0  0  0  0  0  0  0
   -6.5534    2.8905    1.6081 H   0  0  0  0  0  0  0  0  0  0  0  0
   -6.6285    4.7126    3.2779 H   0  0  0  0  0  0  0  0  0  0  0  0
   -7.7860    5.8631    5.1241 H   0  0  0  0  0  0  0  0  0  0  0  0
   -9.9740    5.0255    5.9401 H   0  0  0  0  0  0  0  0  0  0  0  0
  -11.0028    3.0378    4.9092 H   0  0  0  0  0  0  0  0  0  0  0  0
  -10.9271    1.2160    3.2389 H   0  0  0  0  0  0  0  0  0  0  0  0
  -10.8439   -0.5868    1.5811 H   0  0  0  0  0  0  0  0  0  0  0  0
  -10.7982   -2.3652   -0.0255 H   0  0  0  0  0  0  0  0  0  0  0  0
  -10.8305   -4.1878   -1.6117 H   0  0  0  0  0  0  0  0  0  0  0  0
   -9.7958   -5.4470   -3.4523 H   0  0  0  0  0  0  0  0  0  0  0  0
   -7.6034   -4.7294   -4.3677 H   0  0  0  0  0  0  0  0  0  0  0  0
   -6.4644   -2.7734   -3.4508 H   0  0  0  0  0  0  0  0  0  0  0  0
   -4.9071   -1.8619   -0.5167 H   0  0  0  0  0  0  0  0  0  0  0  0
   -2.4489   -1.9019   -0.4363 H   0  0  0  0  0  0  0  0  0  0  0  0
    0.0025   -1.9451   -0.3572 H   0  0  0  0  0  0  0  0  0  0  0  0
    2.4530   -1.9827   -0.2719 H   0  0  0  0  0  0  0  0  0  0  0  0
    4.9103   -2.0162   -0.1812 H   0  0  0  0  0  0  0  0  0  0  0  0
  1  2  4  0
  2  3  4  0
  3  4  4  0
  4  5  4  0
  5  6  4  0
  5  7  4  0
  7  8  4  0
  8  9  4  0
  9 10  4  0
 10 11  4  0
 11 12  4  0
 12 13  4  0
 13 14  4  0
 14 15  4  0
 15 16  4  0
 16 17  4  0
 17 18  4  0
 18 19  4  0
 19 20  4  0
 20 21  4  0
 21 22  4  0
 22 23  1  0
 23 24  4  0
 24 25  4  0
 25 26  4  0
 26 27  4  0
 27 28  4  0
 28 29  4  0
 29 30  4  0
 30 31  4  0
 31 32  4  0
 32 33  4  0
 33 34  4  0
 34 35  4  0
 35 36  1  0
 36 37  4  0
 37 38  4  0
 38 39  4  0
 39 40  4  0
 40 41  4  0
 41 42  4  0
 42 43  4  0
 43 44  4  0
 44 45  4  0
 45 46  4  0
 46 47  4  0
 47 48  4  0
 48 49  4  0
 49 50  4  0
 50 51  4  0
 51 52  4  0
 52 53  4  0
 53 54  4  0
 54 55  4  0
 55 56  4  0
 56 57  4  0
 35 58  4  0
 58 59  4  0
 59 60  4  0
 60 61  4  0
 61 62  4  0
 62 63  4  0
 63 64  4  0
 64 65  4  0
 65 66  4  0
  6  1  4  0
 21  8  4  0
 66 23  4  0
 22  4  4  0
 65 26  4  0
 19 10  4  0
 63 28  4  0
 17 12  4  0
 61 30  4  0
 59 32  4  0
 57 36  4  0
 50 37  4  0
 57 52  4  0
 48 39  4  0
 46 41  4  0
  1 67  1  0
  2 68  1  0
  3 69  1  0
  6 70  1  0
  7 71  1  0
  9 72  1  0
 11 73  1  0
 13 74  1  0
 14 75  1  0
 15 76  1  0
 16 77  1  0
 18 78  1  0
 20 79  1  0
 24 80  1  0
 25 81  1  0
 27 82  1  0
 29 83  1  0
 31 84  1  0
 33 85  1  0
 34 86  1  0
 38 87  1  0
 40 88  1  0
 42 89  1  0
 43 90  1  0
 44 91  1  0
 45 92  1  0
 47 93  1  0
 49 94  1  0
 51 95  1  0
 53 96  1  0
 54 97  1  0
 55 98  1  0
 56 99  1  0
 58100  1  0
 60101  1  0
 62102  1  0
 64103  1  0
 66104  1  0
M  END
