
     RDKit          3D

104118  0  0  0  0  0  0  0  0999 V2000
   -5.9687   -6.8668   -4.8729 C   0  0  0  0  0  0  0  0  0  0  0  0
   -5.9331   -5.6157   -5.4796 C   0  0  0  0  0  0  0  0  0  0  0  0
   -5.8151   -4.4659   -4.6970 C   0  0  0  0  0  0  0  0  0  0  0  0
   -5.7310   -4.5525   -3.2965 C   0  0  0  0  0  0  0  0  0  0  0  0
   -5.6114   -3.4044   -2.4899 C   0  0  0  0  0  0  0  0  0  0  0  0
   -5.5252   -3.4591   -1.0742 C   0  0  0  0  0  0  0  0  0  0  0  0
   -5.5649   -4.7480   -0.4884 C   0  0  0  0  0  0  0  0  0  0  0  0
   -5.6836   -5.8976   -1.2888 C   0  0  0  0  0  0  0  0  0  0  0  0
   -5.7673   -5.8179   -2.6852 C   0  0  0  0  0  0  0  0  0  0  0  0
   -5.8864   -6.9683   -3.4838 C   0  0  0  0  0  0  0  0  0  0  0  0
   -5.4859   -4.8856    0.8995 C   0  0  0  0  0  0  0  0  0  0  0  0
   -5.3689   -3.7695    1.7220 C   0  0  0  0  0  0  0  0  0  0  0  0
   -5.3267   -2.4822    1.1814 C   0  0  0  0  0  0  0  0  0  0  0  0
   -5.2088   -1.3773    2.0425 C   0  0  0  0  0  0  0  0  0  0  0  0
   -5.1615   -0.0645    1.5553 C   0  0  0  0  0  0  0  0  0  0  0  0
   -5.0447    1.0391    2.4196 C   0  0  0  0  0  0  0  0  0  0  0  0
   -4.9941    2.3514    1.9252 C   0  0  0  0  0  0  0  0  0  0  0  0
   -4.8727    3.4951    2.8425 C   0  0  0  0  0  0  0  0  0  0  0  0
   -6.0549    4.0942    3.3144 C   0  0  0  0  0  0  0  0  0  0  0  0
   -6.0099    5.1785    4.1839 C   0  0  0  0  0  0  0  0  0  0  0  0
   -4.7797    5.6820    4.5961 C   0  0  0  0  0  0  0  0  0  0  0  0
   -3.5791    5.1114    4.1472 C   0  0  0  0  0  0  0  0  0  0  0  0
   -2.3468    5.6347    4.5747 C   0  0  0  0  0  0  0  0  0  0  0  0
   -1.1262    5.0910    4.1457 C   0  0  0  0  0  0  0  0  0  0  0  0
    0.1051    5.6165    4.5734 C   0  0  0  0  0  0  0  0  0  0  0  0
    1.3254    5.0709    4.1395 C   0  0  0  0  0  0  0  0  0  0  0  0
    2.5575    5.5929    4.5636 C   0  0  0  0  0  0  0  0  0  0  0  0
    3.7786    5.0502    4.1284 C   0  0  0  0  0  0  0  0  0  0  0  0
    4.9914    5.5972    4.5741 C   0  0  0  0  0  0  0  0  0  0  0  0
    6.2103    5.0737    4.1536 C   0  0  0  0  0  0  0  0  0  0  0  0
    6.2320    3.9938    3.2779 C   0  0  0  0  0  0  0  0  0  0  0  0
    5.0374    3.4188    2.8082 C   0  0  0  0  0  0  0  0  0  0  0  0
    5.1327    2.2835    1.8774 C   0  0  0  0  0  0  0  0  0  0  0  0
    5.2856    0.9774    2.3555 C   0  0  0  0  0  0  0  0  0  0  0  0
    5.3691   -0.0987    1.4682 C   0  0  0  0  0  0  0  0  0  0  0  0
    5.3031    0.1061    0.0806 C   0  0  0  0  0  0  0  0  0  0  0  0
    5.3817   -0.9656   -0.8293 C   0  0  0  0  0  0  0  0  0  0  0  0
    5.3181   -0.7916   -2.2365 C   0  0  0  0  0  0  0  0  0  0  0  0
    5.1685    0.5373   -2.7025 C   0  0  0  0  0  0  0  0  0  0  0  0
    5.0887    1.6104   -1.7979 C   0  0  0  0  0  0  0  0  0  0  0  0
    5.1540    1.4130   -0.4123 C   0  0  0  0  0  0  0  0  0  0  0  0
    5.0723    2.4883    0.4903 C   0  0  0  0  0  0  0  0  0  0  0  0
    5.0986    0.7916   -4.0743 C   0  0  0  0  0  0  0  0  0  0  0  0
    5.1740   -0.2467   -4.9976 C   0  0  0  0  0  0  0  0  0  0  0  0
    5.3211   -1.5704   -4.5765 C   0  0  0  0  0  0  0  0  0  0  0  0
    5.3935   -2.5944   -5.5368 C   0  0  0  0  0  0  0  0  0  0  0  0
    5.5410   -3.9389   -5.1710 C   0  0  0  0  0  0  0  0  0  0  0  0
    5.6133   -4.9613   -6.1327 C   0  0  0  0  0  0  0  0  0  0  0  0
    5.7604   -6.2942   -5.7470 C   0  0  0  0  0  0  0  0  0  0  0  0
    5.8368   -6.6205   -4.3970 C   0  0  0  0  0  0  0  0  0  0  0  0
    5.7662   -5.6137   -3.4326 C   0  0  0  0  0  0  0  0  0  0  0  0
    5.6181   -4.2667   -3.8062 C   0  0  0  0  0  0  0  0  0  0  0  0
    5.5450   -3.2370   -2.8484 C   0  0  0  0  0  0  0  0  0  0  0  0
    5.3958   -1.8685   -3.1939 C   0  0  0  0  0  0  0  0  0  0  0  0
    3.7862    3.9494    3.2385 C   0  0  0  0  0  0  0  0  0  0  0  0
    2.5351    3.4328    2.8244 C   0  0  0  0  0  0  0  0  0  0  0  0
    1.3139    3.9760    3.2595 C   0  0  0  0  0  0  0  0  0  0  0  0
    0.0826    3.4495    2.8341 C   0  0  0  0  0  0  0  0  0  0  0  0
   -1.1376    3.9952    3.2668 C   0  0  0  0  0  0  0  0  0  0  0  0
   -2.3702    3.4708    2.8400 C   0  0  0  0  0  0  0  0  0  0  0  0
   -3.6103    4.0072    3.2620 C   0  0  0  0  0  0  0  0  0  0  0  0
   -5.0666    2.5488    0.5417 C   0  0  0  0  0  0  0  0  0  0  0  0
   -5.1840    1.4603   -0.3264 C   0  0  0  0  0  0  0  0  0  0  0  0
   -5.2328    0.1471    0.1684 C   0  0  0  0  0  0  0  0  0  0  0  0
   -5.3513   -0.9628   -0.6901 C   0  0  0  0  0  0  0  0  0  0  0  0
   -5.4027   -2.3015   -0.2211 C   0  0  0  0  0  0  0  0  0  0  0  0
   -6.0604   -7.7642   -5.4789 H   0  0  0  0  0  0  0  0  0  0  0  0
   -5.9970   -5.5323   -6.5612 H   0  0  0  0  0  0  0  0  0  0  0  0
   -5.7892   -3.4969   -5.1905 H   0  0  0  0  0  0  0  0  0  0  0  0
   -5.5862   -2.4427   -2.9949 H   0  0  0  0  0  0  0  0  0  0  0  0
   -5.7118   -6.8777   -0.8150 H   0  0  0  0  0  0  0  0  0  0  0  0
   -5.9159   -7.9547   -3.0263 H   0  0  0  0  0  0  0  0  0  0  0  0
   -5.5151   -5.8704    1.3612 H   0  0  0  0  0  0  0  0  0  0  0  0
   -5.3105   -3.9205    2.7981 H   0  0  0  0  0  0  0  0  0  0  0  0
   -5.1521   -1.5422    3.1175 H   0  0  0  0  0  0  0  0  0  0  0  0
   -4.9891    0.8794    3.4956 H   0  0  0  0  0  0  0  0  0  0  0  0
   -7.0227    3.7082    2.9986 H   0  0  0  0  0  0  0  0  0  0  0  0
   -6.9319    5.6307    4.5396 H   0  0  0  0  0  0  0  0  0  0  0  0
   -4.7648    6.5312    5.2765 H   0  0  0  0  0  0  0  0  0  0  0  0
   -2.3364    6.4843    5.2556 H   0  0  0  0  0  0  0  0  0  0  0  0
    0.1139    6.4651    5.2551 H   0  0  0  0  0  0  0  0  0  0  0  0
    2.5650    6.4403    5.2473 H   0  0  0  0  0  0  0  0  0  0  0  0
    4.9958    6.4431    5.2587 H   0  0  0  0  0  0  0  0  0  0  0  0
    7.1417    5.5082    4.5069 H   0  0  0  0  0  0  0  0  0  0  0  0
    7.1913    3.5947    2.9522 H   0  0  0  0  0  0  0  0  0  0  0  0
    5.3337    0.7909    3.4266 H   0  0  0  0  0  0  0  0  0  0  0  0
    5.4846   -1.1021    1.8720 H   0  0  0  0  0  0  0  0  0  0  0  0
    5.4956   -1.9632   -0.4141 H   0  0  0  0  0  0  0  0  0  0  0  0
    4.9726    2.6234   -2.1807 H   0  0  0  0  0  0  0  0  0  0  0  0
    4.9544    3.5032    0.1129 H   0  0  0  0  0  0  0  0  0  0  0  0
    4.9845    1.8087   -4.4440 H   0  0  0  0  0  0  0  0  0  0  0  0
    5.1162   -0.0059   -6.0573 H   0  0  0  0  0  0  0  0  0  0  0  0
    5.3337   -2.3403   -6.5941 H   0  0  0  0  0  0  0  0  0  0  0  0
    5.5552   -4.7244   -7.1927 H   0  0  0  0  0  0  0  0  0  0  0  0
    5.8149   -7.0752   -6.5006 H   0  0  0  0  0  0  0  0  0  0  0  0
    5.9514   -7.6573   -4.0924 H   0  0  0  0  0  0  0  0  0  0  0  0
    5.8278   -5.8890   -2.3821 H   0  0  0  0  0  0  0  0  0  0  0  0
    5.6078   -3.5255   -1.8028 H   0  0  0  0  0  0  0  0  0  0  0  0
    2.5075    2.5827    2.1439 H   0  0  0  0  0  0  0  0  0  0  0  0
    0.0743    2.6002    2.1526 H   0  0  0  0  0  0  0  0  0  0  0  0
   -2.3603    2.6205    2.1592 H   0  0  0  0  0  0  0  0  0  0  0  0
   -5.0281    3.5562    0.1320 H   0  0  0  0  0  0  0  0  0  0  0  0
   -5.2371    1.6480   -1.3966 H   0  0  0  0  0  0  0  0  0  0  0  0
   -5.4046   -0.7632   -1.7569 H   0  0  0  0  0  0  0  0  0  0  0  0
  1  2  4  0
  2  3  4  0
  3  4  4  0
  4  5  4  0
  5  6  4  0
  6  7  4  0
  7  8  4  0
  8  9  4  0
  9 10  4  0
  7 11  4  0
 11 12  4  0
 12 13  4  0
 13 14  4  0
 14 15  4  0
 15 16  4  0
 16 17  4  0
 17 18  1  0
 18 19  4  0
 19 20  4  0
 20 21  4  0
 21 22  4  0
 22 23  4  0
 23 24  4  0
 24 25  4  0
 25 26  4  0
 26 27  4  0
 27 28  4  0
 28 29  4  0
 29 30  4  0
 30 31  4  0
 31 32  4  0
 32 33  1  0
 33 34  4  0
 34 35  4  0
 35 36  4  0
 36 37  4  0
 37 38  4  0
 38 39  4  0
 39 40  4  0
 40 41  4  0
 41 42  4  0
 39 43  4  0
 43 44  4  0
 44 45  4  0
 45 46  4  0
 46 47  4  0
 47 48  4  0
 48 49  4  0
 49 50  4  0
 50 51  4  0
 51 52  4  0
 52 53  4  0
 53 54  4  0
 32 55  4  0
 55 56  4  0
 56 57  4  0
 57 58  4  0
 58 59  4  0
 59 60  4  0
 60 61  4  0
 17 62  4  0
 62 63  4  0
 63 64  4  0
 64 65  4  0
 65 66  4  0
 10  1  4  0
 66 13  4  0
  9  4  4  0
 64 15  4  0
 66  6  4  0
 61 18  4  0
 61 22  4  0
 59 24  4  0
 57 26  4  0
 55 28  4  0
 42 33  4  0
 54 45  4  0
 41 36  4  0
 52 47  4  0
 54 38  4  0
  1 67  1  0
  2 68  1  0
  3 69  1  0
  5 70  1  0
  8 71  1  0
 10 72  1  0
 11 73  1  0
 12 74  1  0
 14 75  1  0
 16 76  1  0
 19 77  1  0
 20 78  1  0
 21 79  1  0
 23 80  1  0
 25 81  1  0
 27 82  1  0
 29 83  1  0
 30 84  1  0
 31 85  1  0
 34 86  1  0
 35 87  1  0
 37 88  1  0
 40 89  1  0
 42 90  1  0
 43 91  1  0
 44 92  1  0
 46 93  1  0
 48 94  1  0
 49 95  1  0
 50 96  1  0
 51 97  1  0
 53 98  1  0
 56 99  1  0
 58100  1  0
 60101  1  0
 62102  1  0
 63103  1  0
 65104  1  0
M  END
