
     RDKit          3D

104118  0  0  0  0  0  0  0  0999 V2000
   -7.0279    0.1169   -5.4918 C   0  0  0  0  0  0  0  0  0  0  0  0
   -6.5932    1.4114   -5.7563 C   0  0  0  0  0  0  0  0  0  0  0  0
   -6.0228    2.1757   -4.7368 C   0  0  0  0  0  0  0  0  0  0  0  0
   -5.8800    1.6551   -3.4386 C   0  0  0  0  0  0  0  0  0  0  0  0
   -5.3074    2.4093   -2.3955 C   0  0  0  0  0  0  0  0  0  0  0  0
   -5.1490    1.9145   -1.0725 C   0  0  0  0  0  0  0  0  0  0  0  0
   -5.6035    0.5974   -0.8417 C   0  0  0  0  0  0  0  0  0  0  0  0
   -6.1752   -0.1628   -1.8777 C   0  0  0  0  0  0  0  0  0  0  0  0
   -6.3202    0.3478   -3.1737 C   0  0  0  0  0  0  0  0  0  0  0  0
   -6.8923   -0.4128   -4.2081 C   0  0  0  0  0  0  0  0  0  0  0  0
   -5.4862    0.0348    0.4294 C   0  0  0  0  0  0  0  0  0  0  0  0
   -4.9242    0.7399    1.5036 C   0  0  0  0  0  0  0  0  0  0  0  0
   -4.8443    0.0491    2.8108 C   0  0  0  0  0  0  0  0  0  0  0  0
   -5.9758    0.0789    3.6470 C   0  0  0  0  0  0  0  0  0  0  0  0
   -5.9641   -0.5484    4.8877 C   0  0  0  0  0  0  0  0  0  0  0  0
   -4.8200   -1.2173    5.3126 C   0  0  0  0  0  0  0  0  0  0  0  0
   -3.6728   -1.2712    4.5065 C   0  0  0  0  0  0  0  0  0  0  0  0
   -2.5259   -1.9494    4.9545 C   0  0  0  0  0  0  0  0  0  0  0  0
   -1.3590   -2.0173    4.1775 C   0  0  0  0  0  0  0  0  0  0  0  0
   -0.2095   -2.6893    4.6281 C   0  0  0  0  0  0  0  0  0  0  0  0
    0.9570   -2.7518    3.8461 C   0  0  0  0  0  0  0  0  0  0  0  0
    2.1091   -3.4189    4.2917 C   0  0  0  0  0  0  0  0  0  0  0  0
    3.2762   -3.4791    3.5104 C   0  0  0  0  0  0  0  0  0  0  0  0
    4.4111   -4.1520    3.9884 C   0  0  0  0  0  0  0  0  0  0  0  0
    5.5758   -4.2212    3.2295 C   0  0  0  0  0  0  0  0  0  0  0  0
    5.6212   -3.6165    1.9782 C   0  0  0  0  0  0  0  0  0  0  0  0
    4.5045   -2.9307    1.4652 C   0  0  0  0  0  0  0  0  0  0  0  0
    4.6194   -2.3128    0.1242 C   0  0  0  0  0  0  0  0  0  0  0  0
    4.3566   -3.1246   -0.9891 C   0  0  0  0  0  0  0  0  0  0  0  0
    4.4322   -2.6355   -2.2935 C   0  0  0  0  0  0  0  0  0  0  0  0
    4.1525   -3.4995   -3.3673 C   0  0  0  0  0  0  0  0  0  0  0  0
    4.2105   -3.0654   -4.6976 C   0  0  0  0  0  0  0  0  0  0  0  0
    3.9296   -3.9300   -5.7695 C   0  0  0  0  0  0  0  0  0  0  0  0
    3.9934   -3.4762   -7.0874 C   0  0  0  0  0  0  0  0  0  0  0  0
    4.3382   -2.1542   -7.3487 C   0  0  0  0  0  0  0  0  0  0  0  0
    4.6193   -1.2865   -6.2922 C   0  0  0  0  0  0  0  0  0  0  0  0
    4.5587   -1.7300   -4.9593 C   0  0  0  0  0  0  0  0  0  0  0  0
    4.8376   -0.8714   -3.8780 C   0  0  0  0  0  0  0  0  0  0  0  0
    4.7850   -1.2868   -2.5196 C   0  0  0  0  0  0  0  0  0  0  0  0
    5.0624   -0.4324   -1.3903 C   0  0  0  0  0  0  0  0  0  0  0  0
    5.4225    0.9351   -1.5249 C   0  0  0  0  0  0  0  0  0  0  0  0
    5.6899    1.7770   -0.4307 C   0  0  0  0  0  0  0  0  0  0  0  0
    6.0414    3.1277   -0.6019 C   0  0  0  0  0  0  0  0  0  0  0  0
    6.3001    3.9447    0.4997 C   0  0  0  0  0  0  0  0  0  0  0  0
    6.2102    3.4223    1.7856 C   0  0  0  0  0  0  0  0  0  0  0  0
    5.8628    2.0834    1.9681 C   0  0  0  0  0  0  0  0  0  0  0  0
    5.6015    1.2519    0.8654 C   0  0  0  0  0  0  0  0  0  0  0  0
    5.2515   -0.0959    1.0246 C   0  0  0  0  0  0  0  0  0  0  0  0
    4.9778   -0.9539   -0.0700 C   0  0  0  0  0  0  0  0  0  0  0  0
    3.3085   -2.8589    2.2384 C   0  0  0  0  0  0  0  0  0  0  0  0
    2.1385   -2.1922    1.8042 C   0  0  0  0  0  0  0  0  0  0  0  0
    0.9730   -2.1294    2.5866 C   0  0  0  0  0  0  0  0  0  0  0  0
   -0.1750   -1.4564    2.1374 C   0  0  0  0  0  0  0  0  0  0  0  0
   -1.3406   -1.3946    2.9183 C   0  0  0  0  0  0  0  0  0  0  0  0
   -2.4884   -0.7208    2.4681 C   0  0  0  0  0  0  0  0  0  0  0  0
   -3.6710   -0.6383    3.2406 C   0  0  0  0  0  0  0  0  0  0  0  0
   -4.4592    2.0654    1.3041 C   0  0  0  0  0  0  0  0  0  0  0  0
   -3.8831    2.8147    2.3605 C   0  0  0  0  0  0  0  0  0  0  0  0
   -3.4031    4.1205    2.1932 C   0  0  0  0  0  0  0  0  0  0  0  0
   -2.8273    4.8377    3.2560 C   0  0  0  0  0  0  0  0  0  0  0  0
   -2.3550    6.1365    3.0663 C   0  0  0  0  0  0  0  0  0  0  0  0
   -2.4532    6.7324    1.8135 C   0  0  0  0  0  0  0  0  0  0  0  0
   -3.0227    6.0281    0.7513 C   0  0  0  0  0  0  0  0  0  0  0  0
   -3.5018    4.7181    0.9295 C   0  0  0  0  0  0  0  0  0  0  0  0
   -4.0771    3.9868   -0.1254 C   0  0  0  0  0  0  0  0  0  0  0  0
   -4.5657    2.6602    0.0170 C   0  0  0  0  0  0  0  0  0  0  0  0
   -7.4718   -0.4818   -6.2828 H   0  0  0  0  0  0  0  0  0  0  0  0
   -6.6970    1.8279   -6.7548 H   0  0  0  0  0  0  0  0  0  0  0  0
   -5.6885    3.1856   -4.9633 H   0  0  0  0  0  0  0  0  0  0  0  0
   -4.9791    3.4158   -2.6396 H   0  0  0  0  0  0  0  0  0  0  0  0
   -6.5162   -1.1763   -1.6709 H   0  0  0  0  0  0  0  0  0  0  0  0
   -7.2374   -1.4269   -4.0188 H   0  0  0  0  0  0  0  0  0  0  0  0
   -5.8344   -0.9838    0.6022 H   0  0  0  0  0  0  0  0  0  0  0  0
   -6.8745    0.6034    3.3263 H   0  0  0  0  0  0  0  0  0  0  0  0
   -6.8447   -0.5146    5.5238 H   0  0  0  0  0  0  0  0  0  0  0  0
   -4.8304   -1.6995    6.2879 H   0  0  0  0  0  0  0  0  0  0  0  0
   -2.5403   -2.4323    5.9303 H   0  0  0  0  0  0  0  0  0  0  0  0
   -0.2222   -3.1702    5.6043 H   0  0  0  0  0  0  0  0  0  0  0  0
    2.0966   -3.9000    5.2685 H   0  0  0  0  0  0  0  0  0  0  0  0
    4.3954   -4.6315    4.9651 H   0  0  0  0  0  0  0  0  0  0  0  0
    6.4470   -4.7457    3.6132 H   0  0  0  0  0  0  0  0  0  0  0  0
    6.5377   -3.6748    1.3929 H   0  0  0  0  0  0  0  0  0  0  0  0
    4.0809   -4.1656   -0.8190 H   0  0  0  0  0  0  0  0  0  0  0  0
    3.8832   -4.5349   -3.1634 H   0  0  0  0  0  0  0  0  0  0  0  0
    3.6583   -4.9664   -5.5818 H   0  0  0  0  0  0  0  0  0  0  0  0
    3.7735   -4.1552   -7.9067 H   0  0  0  0  0  0  0  0  0  0  0  0
    4.3888   -1.7959   -8.3733 H   0  0  0  0  0  0  0  0  0  0  0  0
    4.8870   -0.2564   -6.5171 H   0  0  0  0  0  0  0  0  0  0  0  0
    5.1030    0.1537   -4.1206 H   0  0  0  0  0  0  0  0  0  0  0  0
    5.5012    1.3794   -2.5133 H   0  0  0  0  0  0  0  0  0  0  0  0
    6.1156    3.5543   -1.5997 H   0  0  0  0  0  0  0  0  0  0  0  0
    6.5700    4.9868    0.3520 H   0  0  0  0  0  0  0  0  0  0  0  0
    6.4090    4.0543    2.6469 H   0  0  0  0  0  0  0  0  0  0  0  0
    5.7948    1.6898    2.9800 H   0  0  0  0  0  0  0  0  0  0  0  0
    5.1887   -0.4847    2.0404 H   0  0  0  0  0  0  0  0  0  0  0  0
    2.1317   -1.7031    0.8308 H   0  0  0  0  0  0  0  0  0  0  0  0
   -0.1598   -0.9676    1.1637 H   0  0  0  0  0  0  0  0  0  0  0  0
   -2.4542   -0.2443    1.4890 H   0  0  0  0  0  0  0  0  0  0  0  0
   -3.7979    2.3690    3.3510 H   0  0  0  0  0  0  0  0  0  0  0  0
   -2.7416    4.3845    4.2414 H   0  0  0  0  0  0  0  0  0  0  0  0
   -1.9114    6.6796    3.8964 H   0  0  0  0  0  0  0  0  0  0  0  0
   -2.0867    7.7439    1.6608 H   0  0  0  0  0  0  0  0  0  0  0  0
   -3.0898    6.5103   -0.2213 H   0  0  0  0  0  0  0  0  0  0  0  0
   -4.1359    4.4843   -1.0896 H   0  0  0  0  0  0  0  0  0  0  0  0
  1  2  4  0
  2  3  4  0
  3  4  4  0
  4  5  4  0
  5  6  4  0
  6  7  4  0
  7  8  4  0
  8  9  4  0
  9 10  4  0
  7 11  4  0
 11 12  4  0
 12 13  1  0
 13 14  4  0
 14 15  4  0
 15 16  4  0
 16 17  4  0
 17 18  4  0
 18 19  4  0
 19 20  4  0
 20 21  4  0
 21 22  4  0
 22 23  4  0
 23 24  4  0
 24 25  4  0
 25 26  4  0
 26 27  4  0
 27 28  1  0
 28 29  4  0
 29 30  4  0
 30 31  4  0
 31 32  4  0
 32 33  4  0
 33 34  4  0
 34 35  4  0
 35 36  4  0
 36 37  4  0
 37 38  4  0
 38 39  4  0
 39 40  4  0
 40 41  4  0
 41 42  4  0
 42 43  4  0
 43 44  4  0
 44 45  4  0
 45 46  4  0
 46 47  4  0
 47 48  4  0
 48 49  4  0
 27 50  4  0
 50 51  4  0
 51 52  4  0
 52 53  4  0
 53 54  4  0
 54 55  4  0
 55 56  4  0
 12 57  4  0
 57 58  4  0
 58 59  4  0
 59 60  4  0
 60 61  4  0
 61 62  4  0
 62 63  4  0
 63 64  4  0
 64 65  4  0
 65 66  4  0
 10  1  4  0
 56 13  4  0
 66 57  4  0
  9  4  4  0
 56 17  4  0
 64 59  4  0
 66  6  4  0
 54 19  4  0
 52 21  4  0
 50 23  4  0
 49 28  4  0
 39 30  4  0
 49 40  4  0
 37 32  4  0
 47 42  4  0
  1 67  1  0
  2 68  1  0
  3 69  1  0
  5 70  1  0
  8 71  1  0
 10 72  1  0
 11 73  1  0
 14 74  1  0
 15 75  1  0
 16 76  1  0
 18 77  1  0
 20 78  1  0
 22 79  1  0
 24 80  1  0
 25 81  1  0
 26 82  1  0
 29 83  1  0
 31 84  1  0
 33 85  1  0
 34 86  1  0
 35 87  1  0
 36 88  1  0
 38 89  1  0
 41 90  1  0
 43 91  1  0
 44 92  1  0
 45 93  1  0
 46 94  1  0
 48 95  1  0
 51 96  1  0
 53 97  1  0
 55 98  1  0
 58 99  1  0
 60100  1  0
 61101  1  0
 62102  1  0
 63103  1  0
 65104  1  0
M  END
