
     RDKit          3D

 96110  0  0  0  0  0  0  0  0999 V2000
   -6.2242   -4.9240   -3.3696 C   0  0  0  0  0  0  0  0  0  0  0  0
   -6.1751   -4.1167   -4.4945 C   0  0  0  0  0  0  0  0  0  0  0  0
   -5.9499   -2.7436   -4.3566 C   0  0  0  0  0  0  0  0  0  0  0  0
   -5.7653   -2.1267   -3.0915 C   0  0  0  0  0  0  0  0  0  0  0  0
   -5.8200   -2.9766   -1.9611 C   0  0  0  0  0  0  0  0  0  0  0  0
   -6.0474   -4.3560   -2.1112 C   0  0  0  0  0  0  0  0  0  0  0  0
   -5.6469   -2.4446   -0.6804 C   0  0  0  0  0  0  0  0  0  0  0  0
   -5.4187   -1.0803   -0.4792 C   0  0  0  0  0  0  0  0  0  0  0  0
   -5.2477   -0.5811    0.8165 C   0  0  0  0  0  0  0  0  0  0  0  0
   -5.0157    0.7826    1.0610 C   0  0  0  0  0  0  0  0  0  0  0  0
   -4.8443    1.2163    2.4644 C   0  0  0  0  0  0  0  0  0  0  0  0
   -5.9967    1.5486    3.2006 C   0  0  0  0  0  0  0  0  0  0  0  0
   -5.9047    1.9567    4.5264 C   0  0  0  0  0  0  0  0  0  0  0  0
   -4.6576    2.0367    5.1389 C   0  0  0  0  0  0  0  0  0  0  0  0
   -3.4861    1.7120    4.4381 C   0  0  0  0  0  0  0  0  0  0  0  0
   -2.2364    1.7981    5.0752 C   0  0  0  0  0  0  0  0  0  0  0  0
   -1.0436    1.4818    4.4063 C   0  0  0  0  0  0  0  0  0  0  0  0
    0.2047    1.5660    5.0466 C   0  0  0  0  0  0  0  0  0  0  0  0
    1.3972    1.2487    4.3735 C   0  0  0  0  0  0  0  0  0  0  0  0
    2.6449    1.3278    5.0115 C   0  0  0  0  0  0  0  0  0  0  0  0
    3.8387    1.0111    4.3410 C   0  0  0  0  0  0  0  0  0  0  0  0
    5.0676    1.0994    5.0127 C   0  0  0  0  0  0  0  0  0  0  0  0
    6.2610    0.7911    4.3668 C   0  0  0  0  0  0  0  0  0  0  0  0
    6.2410    0.3899    3.0359 C   0  0  0  0  0  0  0  0  0  0  0  0
    5.0284    0.2875    2.3287 C   0  0  0  0  0  0  0  0  0  0  0  0
    5.0838   -0.1382    0.9131 C   0  0  0  0  0  0  0  0  0  0  0  0
    5.2741    0.8515   -0.0655 C   0  0  0  0  0  0  0  0  0  0  0  0
    5.3456    0.5396   -1.4277 C   0  0  0  0  0  0  0  0  0  0  0  0
    5.5357    1.5540   -2.3704 C   0  0  0  0  0  0  0  0  0  0  0  0
    5.6119    1.2774   -3.7383 C   0  0  0  0  0  0  0  0  0  0  0  0
    5.8039    2.3333   -4.6468 C   0  0  0  0  0  0  0  0  0  0  0  0
    5.8852    2.0992   -6.0164 C   0  0  0  0  0  0  0  0  0  0  0  0
    5.7750    0.8032   -6.4939 C   0  0  0  0  0  0  0  0  0  0  0  0
    5.5840   -0.2542   -5.5992 C   0  0  0  0  0  0  0  0  0  0  0  0
    5.4960   -0.0568   -4.1961 C   0  0  0  0  0  0  0  0  0  0  0  0
    5.3007   -1.1114   -3.2352 C   0  0  0  0  0  0  0  0  0  0  0  0
    5.2268   -0.7991   -1.8493 C   0  0  0  0  0  0  0  0  0  0  0  0
    5.0352   -1.8159   -0.8687 C   0  0  0  0  0  0  0  0  0  0  0  0
    4.9636   -1.4937    0.5143 C   0  0  0  0  0  0  0  0  0  0  0  0
    4.7735   -2.5477    1.4364 C   0  0  0  0  0  0  0  0  0  0  0  0
    4.6566   -3.8717    1.0200 C   0  0  0  0  0  0  0  0  0  0  0  0
    4.7277   -4.1778   -0.3326 C   0  0  0  0  0  0  0  0  0  0  0  0
    4.9160   -3.1646   -1.2804 C   0  0  0  0  0  0  0  0  0  0  0  0
    4.9878   -3.4765   -2.6369 C   0  0  0  0  0  0  0  0  0  0  0  0
    5.1752   -2.4727   -3.5891 C   0  0  0  0  0  0  0  0  0  0  0  0
    3.8026    0.6025    2.9861 C   0  0  0  0  0  0  0  0  0  0  0  0
    2.5361    0.5280    2.3580 C   0  0  0  0  0  0  0  0  0  0  0  0
    1.3411    0.8417    3.0300 C   0  0  0  0  0  0  0  0  0  0  0  0
    0.0921    0.7567    2.3908 C   0  0  0  0  0  0  0  0  0  0  0  0
   -1.1010    1.0706    3.0643 C   0  0  0  0  0  0  0  0  0  0  0  0
   -2.3516    0.9828    2.4274 C   0  0  0  0  0  0  0  0  0  0  0  0
   -3.5640    1.2964    3.0876 C   0  0  0  0  0  0  0  0  0  0  0  0
   -4.9574    1.6836   -0.0323 C   0  0  0  0  0  0  0  0  0  0  0  0
   -5.1282    1.1809   -1.3509 C   0  0  0  0  0  0  0  0  0  0  0  0
   -5.0672    2.0684   -2.4514 C   0  0  0  0  0  0  0  0  0  0  0  0
   -4.8409    3.4346   -2.2452 C   0  0  0  0  0  0  0  0  0  0  0  0
   -4.6744    3.9339   -0.9602 C   0  0  0  0  0  0  0  0  0  0  0  0
   -4.7326    3.0695    0.1302 C   0  0  0  0  0  0  0  0  0  0  0  0
   -5.2339    1.5717   -3.7427 C   0  0  0  0  0  0  0  0  0  0  0  0
   -5.4603    0.2109   -3.9581 C   0  0  0  0  0  0  0  0  0  0  0  0
   -5.5317   -0.7191   -2.8978 C   0  0  0  0  0  0  0  0  0  0  0  0
   -5.3600   -0.2065   -1.5822 C   0  0  0  0  0  0  0  0  0  0  0  0
   -6.3993   -5.9917   -3.4677 H   0  0  0  0  0  0  0  0  0  0  0  0
   -6.3113   -4.5477   -5.4828 H   0  0  0  0  0  0  0  0  0  0  0  0
   -5.9215   -2.1590   -5.2714 H   0  0  0  0  0  0  0  0  0  0  0  0
   -6.0896   -5.0054   -1.2387 H   0  0  0  0  0  0  0  0  0  0  0  0
   -5.6907   -3.1087    0.1820 H   0  0  0  0  0  0  0  0  0  0  0  0
   -5.2902   -1.2628    1.6662 H   0  0  0  0  0  0  0  0  0  0  0  0
   -6.9770    1.4900    2.7303 H   0  0  0  0  0  0  0  0  0  0  0  0
   -6.8033    2.2116    5.0818 H   0  0  0  0  0  0  0  0  0  0  0  0
   -4.6066    2.3571    6.1775 H   0  0  0  0  0  0  0  0  0  0  0  0
   -2.1906    2.1182    6.1150 H   0  0  0  0  0  0  0  0  0  0  0  0
    0.2487    1.8830    6.0870 H   0  0  0  0  0  0  0  0  0  0  0  0
    2.6868    1.6419    6.0531 H   0  0  0  0  0  0  0  0  0  0  0  0
    5.1048    1.4120    6.0544 H   0  0  0  0  0  0  0  0  0  0  0  0
    7.2052    0.8639    4.9000 H   0  0  0  0  0  0  0  0  0  0  0  0
    7.1803    0.1502    2.5401 H   0  0  0  0  0  0  0  0  0  0  0  0
    5.3665    1.8895    0.2545 H   0  0  0  0  0  0  0  0  0  0  0  0
    5.6272    2.5849   -2.0305 H   0  0  0  0  0  0  0  0  0  0  0  0
    5.8925    3.3577   -4.2898 H   0  0  0  0  0  0  0  0  0  0  0  0
    6.0337    2.9267   -6.7045 H   0  0  0  0  0  0  0  0  0  0  0  0
    5.8366    0.6071   -7.5611 H   0  0  0  0  0  0  0  0  0  0  0  0
    5.5041   -1.2487   -6.0282 H   0  0  0  0  0  0  0  0  0  0  0  0
    4.7126   -2.3455    2.5044 H   0  0  0  0  0  0  0  0  0  0  0  0
    4.5097   -4.6608    1.7525 H   0  0  0  0  0  0  0  0  0  0  0  0
    4.6346   -5.2164   -0.6418 H   0  0  0  0  0  0  0  0  0  0  0  0
    4.8996   -4.5071   -2.9745 H   0  0  0  0  0  0  0  0  0  0  0  0
    5.2217   -2.7883   -4.6273 H   0  0  0  0  0  0  0  0  0  0  0  0
    2.4747    0.2145    1.3165 H   0  0  0  0  0  0  0  0  0  0  0  0
    0.0474    0.4387    1.3499 H   0  0  0  0  0  0  0  0  0  0  0  0
   -2.3783    0.6614    1.3868 H   0  0  0  0  0  0  0  0  0  0  0  0
   -4.7924    4.1222   -3.0866 H   0  0  0  0  0  0  0  0  0  0  0  0
   -4.4984    4.9947   -0.8041 H   0  0  0  0  0  0  0  0  0  0  0  0
   -4.5968    3.4962    1.1225 H   0  0  0  0  0  0  0  0  0  0  0  0
   -5.1904    2.2368   -4.6025 H   0  0  0  0  0  0  0  0  0  0  0  0
   -5.5810   -0.1056   -4.9899 H   0  0  0  0  0  0  0  0  0  0  0  0
  1  2  4  0
  2  3  4  0
  3  4  4  0
  4  5  4  0
  5  6  4  0
  5  7  4  0
  7  8  4  0
  8  9  4  0
  9 10  4  0
 10 11  1  0
 11 12  4  0
 12 13  4  0
 13 14  4  0
 14 15  4  0
 15 16  4  0
 16 17  4  0
 17 18  4  0
 18 19  4  0
 19 20  4  0
 20 21  4  0
 21 22  4  0
 22 23  4  0
 23 24  4  0
 24 25  4  0
 25 26  1  0
 26 27  4  0
 27 28  4  0
 28 29  4  0
 29 30  4  0
 30 31  4  0
 31 32  4  0
 32 33  4  0
 33 34  4  0
 34 35  4  0
 35 36  4  0
 36 37  4  0
 37 38  4  0
 38 39  4  0
 39 40  4  0
 40 41  4  0
 41 42  4  0
 42 43  4  0
 43 44  4  0
 44 45  4  0
 25 46  4  0
 46 47  4  0
 47 48  4  0
 48 49  4  0
 49 50  4  0
 50 51  4  0
 51 52  4  0
 10 53  4  0
 53 54  4  0
 54 55  4  0
 55 56  4  0
 56 57  4  0
 57 58  4  0
 55 59  4  0
 59 60  4  0
 60 61  4  0
 61 62  4  0
  6  1  4  0
 62  8  4  0
 61  4  4  0
 52 11  4  0
 58 53  4  0
 52 15  4  0
 62 54  4  0
 50 17  4  0
 48 19  4  0
 46 21  4  0
 39 26  4  0
 37 28  4  0
 43 38  4  0
 35 30  4  0
 45 36  4  0
  1 63  1  0
  2 64  1  0
  3 65  1  0
  6 66  1  0
  7 67  1  0
  9 68  1  0
 12 69  1  0
 13 70  1  0
 14 71  1  0
 16 72  1  0
 18 73  1  0
 20 74  1  0
 22 75  1  0
 23 76  1  0
 24 77  1  0
 27 78  1  0
 29 79  1  0
 31 80  1  0
 32 81  1  0
 33 82  1  0
 34 83  1  0
 40 84  1  0
 41 85  1  0
 42 86  1  0
 44 87  1  0
 45 88  1  0
 47 89  1  0
 49 90  1  0
 51 91  1  0
 56 92  1  0
 57 93  1  0
 58 94  1  0
 59 95  1  0
 60 96  1  0
M  END
