
     RDKit          3D

 96110  0  0  0  0  0  0  0  0999 V2000
    5.8874    6.4371    3.1736 C   0  0  0  0  0  0  0  0  0  0  0  0
    6.2278    5.2347    3.7891 C   0  0  0  0  0  0  0  0  0  0  0  0
    6.1189    4.0207    3.0947 C   0  0  0  0  0  0  0  0  0  0  0  0
    5.6588    4.0160    1.7553 C   0  0  0  0  0  0  0  0  0  0  0  0
    5.3161    5.2390    1.1396 C   0  0  0  0  0  0  0  0  0  0  0  0
    5.4342    6.4394    1.8564 C   0  0  0  0  0  0  0  0  0  0  0  0
    4.8637    5.2282   -0.1793 C   0  0  0  0  0  0  0  0  0  0  0  0
    4.7502    4.0255   -0.8835 C   0  0  0  0  0  0  0  0  0  0  0  0
    5.0816    2.7764   -0.3083 C   0  0  0  0  0  0  0  0  0  0  0  0
    5.5419    2.7934    1.0354 C   0  0  0  0  0  0  0  0  0  0  0  0
    5.8926    1.5876    1.6803 C   0  0  0  0  0  0  0  0  0  0  0  0
    5.7842    0.3775    0.9896 C   0  0  0  0  0  0  0  0  0  0  0  0
    5.3344    0.3273   -0.3338 C   0  0  0  0  0  0  0  0  0  0  0  0
    5.2431   -0.9168   -0.9851 C   0  0  0  0  0  0  0  0  0  0  0  0
    4.7963   -1.0253   -2.3072 C   0  0  0  0  0  0  0  0  0  0  0  0
    4.7087   -2.3353   -2.9701 C   0  0  0  0  0  0  0  0  0  0  0  0
    5.8454   -2.8106   -3.6496 C   0  0  0  0  0  0  0  0  0  0  0  0
    5.8281   -4.0392   -4.3003 C   0  0  0  0  0  0  0  0  0  0  0  0
    4.6718   -4.8133   -4.2825 C   0  0  0  0  0  0  0  0  0  0  0  0
    3.5184   -4.3736   -3.6150 C   0  0  0  0  0  0  0  0  0  0  0  0
    2.3603   -5.1699   -3.6090 C   0  0  0  0  0  0  0  0  0  0  0  0
    1.1883   -4.7635   -2.9518 C   0  0  0  0  0  0  0  0  0  0  0  0
    0.0310   -5.5610   -2.9488 C   0  0  0  0  0  0  0  0  0  0  0  0
   -1.1410   -5.1512   -2.2899 C   0  0  0  0  0  0  0  0  0  0  0  0
   -2.2984   -5.9454   -2.2851 C   0  0  0  0  0  0  0  0  0  0  0  0
   -3.4725   -5.5373   -1.6288 C   0  0  0  0  0  0  0  0  0  0  0  0
   -4.6094   -6.3596   -1.6444 C   0  0  0  0  0  0  0  0  0  0  0  0
   -5.7814   -5.9740   -1.0008 C   0  0  0  0  0  0  0  0  0  0  0  0
   -5.8319   -4.7556   -0.3330 C   0  0  0  0  0  0  0  0  0  0  0  0
   -4.7135   -3.9024   -0.2961 C   0  0  0  0  0  0  0  0  0  0  0  0
   -4.8419   -2.6241    0.4209 C   0  0  0  0  0  0  0  0  0  0  0  0
   -4.6908   -2.5599    1.8050 C   0  0  0  0  0  0  0  0  0  0  0  0
   -4.8162   -1.3396    2.4788 C   0  0  0  0  0  0  0  0  0  0  0  0
   -5.0998   -0.1265    1.8033 C   0  0  0  0  0  0  0  0  0  0  0  0
   -5.2547   -0.2065    0.3986 C   0  0  0  0  0  0  0  0  0  0  0  0
   -5.1279   -1.4392   -0.2679 C   0  0  0  0  0  0  0  0  0  0  0  0
   -5.5359    0.9470   -0.3406 C   0  0  0  0  0  0  0  0  0  0  0  0
   -5.6707    2.1947    0.2738 C   0  0  0  0  0  0  0  0  0  0  0  0
   -5.9524    3.3348   -0.4913 C   0  0  0  0  0  0  0  0  0  0  0  0
   -6.0890    4.5850    0.1105 C   0  0  0  0  0  0  0  0  0  0  0  0
   -5.9471    4.7254    1.4939 C   0  0  0  0  0  0  0  0  0  0  0  0
   -5.6623    3.5831    2.2811 C   0  0  0  0  0  0  0  0  0  0  0  0
   -5.5190    3.7261    3.6780 C   0  0  0  0  0  0  0  0  0  0  0  0
   -5.6594    4.9909    4.2688 C   0  0  0  0  0  0  0  0  0  0  0  0
   -5.9397    6.1104    3.4889 C   0  0  0  0  0  0  0  0  0  0  0  0
   -6.0826    5.9785    2.1095 C   0  0  0  0  0  0  0  0  0  0  0  0
   -5.2385    2.5979    4.4478 C   0  0  0  0  0  0  0  0  0  0  0  0
   -5.1007    1.3426    3.8475 C   0  0  0  0  0  0  0  0  0  0  0  0
   -5.2357    1.1509    2.4525 C   0  0  0  0  0  0  0  0  0  0  0  0
   -5.5214    2.3036    1.6733 C   0  0  0  0  0  0  0  0  0  0  0  0
   -3.5089   -4.2953   -0.9507 C   0  0  0  0  0  0  0  0  0  0  0  0
   -2.3310   -3.5094   -0.9614 C   0  0  0  0  0  0  0  0  0  0  0  0
   -1.1565   -3.9173   -1.6189 C   0  0  0  0  0  0  0  0  0  0  0  0
    0.0015   -3.1204   -1.6217 C   0  0  0  0  0  0  0  0  0  0  0  0
    1.1737   -3.5291   -2.2814 C   0  0  0  0  0  0  0  0  0  0  0  0
    2.3325   -2.7322   -2.2875 C   0  0  0  0  0  0  0  0  0  0  0  0
    3.5222   -3.1256   -2.9470 C   0  0  0  0  0  0  0  0  0  0  0  0
    4.4429    0.1428   -2.9807 C   0  0  0  0  0  0  0  0  0  0  0  0
    4.5305    1.3856   -2.3434 C   0  0  0  0  0  0  0  0  0  0  0  0
    4.9761    1.5211   -1.0048 C   0  0  0  0  0  0  0  0  0  0  0  0
    6.3464    1.6091    3.0063 C   0  0  0  0  0  0  0  0  0  0  0  0
    6.4585    2.8102    3.7054 C   0  0  0  0  0  0  0  0  0  0  0  0
    5.9751    7.3722    3.7203 H   0  0  0  0  0  0  0  0  0  0  0  0
    6.5797    5.2517    4.8181 H   0  0  0  0  0  0  0  0  0  0  0  0
    5.1726    7.3874    1.3916 H   0  0  0  0  0  0  0  0  0  0  0  0
    4.5927    6.1557   -0.6788 H   0  0  0  0  0  0  0  0  0  0  0  0
    4.3913    4.0919   -1.9066 H   0  0  0  0  0  0  0  0  0  0  0  0
    6.0569   -0.5478    1.4954 H   0  0  0  0  0  0  0  0  0  0  0  0
    5.5224   -1.8268   -0.4545 H   0  0  0  0  0  0  0  0  0  0  0  0
    6.7549   -2.2123   -3.6712 H   0  0  0  0  0  0  0  0  0  0  0  0
    6.7140   -4.3926   -4.8212 H   0  0  0  0  0  0  0  0  0  0  0  0
    4.6780   -5.7713   -4.7986 H   0  0  0  0  0  0  0  0  0  0  0  0
    2.3704   -6.1273   -4.1276 H   0  0  0  0  0  0  0  0  0  0  0  0
    0.0424   -6.5171   -3.4690 H   0  0  0  0  0  0  0  0  0  0  0  0
   -2.2845   -6.9025   -2.8042 H   0  0  0  0  0  0  0  0  0  0  0  0
   -4.5900   -7.3162   -2.1628 H   0  0  0  0  0  0  0  0  0  0  0  0
   -6.6544   -6.6207   -1.0217 H   0  0  0  0  0  0  0  0  0  0  0  0
   -6.7554   -4.4612    0.1629 H   0  0  0  0  0  0  0  0  0  0  0  0
   -4.4694   -3.4611    2.3732 H   0  0  0  0  0  0  0  0  0  0  0  0
   -4.6843   -1.3613    3.5568 H   0  0  0  0  0  0  0  0  0  0  0  0
   -5.2509   -1.4840   -1.3498 H   0  0  0  0  0  0  0  0  0  0  0  0
   -5.6524    0.8722   -1.4211 H   0  0  0  0  0  0  0  0  0  0  0  0
   -6.0689    3.2600   -1.5706 H   0  0  0  0  0  0  0  0  0  0  0  0
   -6.3076    5.4483   -0.5138 H   0  0  0  0  0  0  0  0  0  0  0  0
   -5.5509    5.1128    5.3443 H   0  0  0  0  0  0  0  0  0  0  0  0
   -6.0466    7.0857    3.9561 H   0  0  0  0  0  0  0  0  0  0  0  0
   -6.3011    6.8638    1.5165 H   0  0  0  0  0  0  0  0  0  0  0  0
   -5.1228    2.6788    5.5263 H   0  0  0  0  0  0  0  0  0  0  0  0
   -4.8824    0.5080    4.5076 H   0  0  0  0  0  0  0  0  0  0  0  0
   -2.3244   -2.5514   -0.4429 H   0  0  0  0  0  0  0  0  0  0  0  0
   -0.0100   -2.1636   -1.1017 H   0  0  0  0  0  0  0  0  0  0  0  0
    2.3043   -1.7782   -1.7625 H   0  0  0  0  0  0  0  0  0  0  0  0
    4.0923    0.0950   -4.0098 H   0  0  0  0  0  0  0  0  0  0  0  0
    4.2390    2.2547   -2.9261 H   0  0  0  0  0  0  0  0  0  0  0  0
    6.6189    0.6846    3.5114 H   0  0  0  0  0  0  0  0  0  0  0  0
    6.8140    2.7894    4.7331 H   0  0  0  0  0  0  0  0  0  0  0  0
  1  2  4  0
  2  3  4  0
  3  4  4  0
  4  5  4  0
  5  6  4  0
  5  7  4  0
  7  8  4  0
  8  9  4  0
  9 10  4  0
 10 11  4  0
 11 12  4  0
 12 13  4  0
 13 14  4  0
 14 15  4  0
 15 16  1  0
 16 17  4  0
 17 18  4  0
 18 19  4  0
 19 20  4  0
 20 21  4  0
 21 22  4  0
 22 23  4  0
 23 24  4  0
 24 25  4  0
 25 26  4  0
 26 27  4  0
 27 28  4  0
 28 29  4  0
 29 30  4  0
 30 31  1  0
 31 32  4  0
 32 33  4  0
 33 34  4  0
 34 35  4  0
 35 36  4  0
 35 37  4  0
 37 38  4  0
 38 39  4  0
 39 40  4  0
 40 41  4  0
 41 42  4  0
 42 43  4  0
 43 44  4  0
 44 45  4  0
 45 46  4  0
 43 47  4  0
 47 48  4  0
 48 49  4  0
 49 50  4  0
 30 51  4  0
 51 52  4  0
 52 53  4  0
 53 54  4  0
 54 55  4  0
 55 56  4  0
 56 57  4  0
 15 58  4  0
 58 59  4  0
 59 60  4  0
 11 61  4  0
 61 62  4  0
  6  1  4  0
 60  9  4  0
 62  3  4  0
 10  4  4  0
 60 13  4  0
 57 16  4  0
 57 20  4  0
 55 22  4  0
 53 24  4  0
 51 26  4  0
 36 31  4  0
 50 38  4  0
 49 34  4  0
 46 41  4  0
 50 42  4  0
  1 63  1  0
  2 64  1  0
  6 65  1  0
  7 66  1  0
  8 67  1  0
 12 68  1  0
 14 69  1  0
 17 70  1  0
 18 71  1  0
 19 72  1  0
 21 73  1  0
 23 74  1  0
 25 75  1  0
 27 76  1  0
 28 77  1  0
 29 78  1  0
 32 79  1  0
 33 80  1  0
 36 81  1  0
 37 82  1  0
 39 83  1  0
 40 84  1  0
 44 85  1  0
 45 86  1  0
 46 87  1  0
 47 88  1  0
 48 89  1  0
 52 90  1  0
 54 91  1  0
 56 92  1  0
 58 93  1  0
 59 94  1  0
 61 95  1  0
 62 96  1  0
M  END
