
     RDKit          3D

 96110  0  0  0  0  0  0  0  0999 V2000
   -6.9795    3.8076   -0.1317 C   0  0  0  0  0  0  0  0  0  0  0  0
   -7.0740    3.8684   -1.5122 C   0  0  0  0  0  0  0  0  0  0  0  0
   -6.6742    2.7740   -2.2852 C   0  0  0  0  0  0  0  0  0  0  0  0
   -6.1669    1.5791   -1.7086 C   0  0  0  0  0  0  0  0  0  0  0  0
   -6.0849    1.5462   -0.2993 C   0  0  0  0  0  0  0  0  0  0  0  0
   -6.4873    2.6531    0.4694 C   0  0  0  0  0  0  0  0  0  0  0  0
   -5.5997    0.4036    0.3445 C   0  0  0  0  0  0  0  0  0  0  0  0
   -5.1780   -0.7425   -0.3558 C   0  0  0  0  0  0  0  0  0  0  0  0
   -5.2483   -0.7211   -1.7711 C   0  0  0  0  0  0  0  0  0  0  0  0
   -5.7402    0.4277   -2.4563 C   0  0  0  0  0  0  0  0  0  0  0  0
   -5.7810    0.3682   -3.8686 C   0  0  0  0  0  0  0  0  0  0  0  0
   -5.3603   -0.7542   -4.5844 C   0  0  0  0  0  0  0  0  0  0  0  0
   -4.8772   -1.8762   -3.9172 C   0  0  0  0  0  0  0  0  0  0  0  0
   -4.4514   -3.0064   -4.6309 C   0  0  0  0  0  0  0  0  0  0  0  0
   -3.9684   -4.1263   -3.9606 C   0  0  0  0  0  0  0  0  0  0  0  0
   -3.9080   -4.1272   -2.5703 C   0  0  0  0  0  0  0  0  0  0  0  0
   -4.3303   -3.0090   -1.8360 C   0  0  0  0  0  0  0  0  0  0  0  0
   -4.8200   -1.8652   -2.5054 C   0  0  0  0  0  0  0  0  0  0  0  0
   -4.2736   -3.0122   -0.4425 C   0  0  0  0  0  0  0  0  0  0  0  0
   -4.6890   -1.9015    0.3097 C   0  0  0  0  0  0  0  0  0  0  0  0
   -4.6036   -1.9993    1.7837 C   0  0  0  0  0  0  0  0  0  0  0  0
   -5.7152   -2.5113    2.4784 C   0  0  0  0  0  0  0  0  0  0  0  0
   -5.6991   -2.6308    3.8632 C   0  0  0  0  0  0  0  0  0  0  0  0
   -4.5692   -2.2419    4.5765 C   0  0  0  0  0  0  0  0  0  0  0  0
   -3.4399   -1.7303    3.9194 C   0  0  0  0  0  0  0  0  0  0  0  0
   -2.3078   -1.3441    4.6575 C   0  0  0  0  0  0  0  0  0  0  0  0
   -1.1619   -0.8274    4.0326 C   0  0  0  0  0  0  0  0  0  0  0  0
   -0.0303   -0.4395    4.7705 C   0  0  0  0  0  0  0  0  0  0  0  0
    1.1150    0.0763    4.1394 C   0  0  0  0  0  0  0  0  0  0  0  0
    2.2481    0.4644    4.8711 C   0  0  0  0  0  0  0  0  0  0  0  0
    3.3939    0.9793    4.2403 C   0  0  0  0  0  0  0  0  0  0  0  0
    4.5096    1.3566    5.0030 C   0  0  0  0  0  0  0  0  0  0  0  0
    5.6529    1.8683    4.3962 C   0  0  0  0  0  0  0  0  0  0  0  0
    5.6957    2.0098    3.0140 C   0  0  0  0  0  0  0  0  0  0  0  0
    4.5980    1.6403    2.2150 C   0  0  0  0  0  0  0  0  0  0  0  0
    4.7102    1.8191    0.7503 C   0  0  0  0  0  0  0  0  0  0  0  0
    4.3235    3.0576    0.2127 C   0  0  0  0  0  0  0  0  0  0  0  0
    4.3960    3.3105   -1.1571 C   0  0  0  0  0  0  0  0  0  0  0  0
    4.8723    2.3000   -2.0221 C   0  0  0  0  0  0  0  0  0  0  0  0
    4.9426    2.5685   -3.4076 C   0  0  0  0  0  0  0  0  0  0  0  0
    4.5429    3.8181   -3.9043 C   0  0  0  0  0  0  0  0  0  0  0  0
    4.0739    4.8055   -3.0430 C   0  0  0  0  0  0  0  0  0  0  0  0
    4.0010    4.5526   -1.6764 C   0  0  0  0  0  0  0  0  0  0  0  0
    5.4120    1.5789   -4.2665 C   0  0  0  0  0  0  0  0  0  0  0  0
    5.8057    0.3363   -3.7665 C   0  0  0  0  0  0  0  0  0  0  0  0
    5.7517    0.0198   -2.3894 C   0  0  0  0  0  0  0  0  0  0  0  0
    5.2740    1.0327   -1.5079 C   0  0  0  0  0  0  0  0  0  0  0  0
    5.1905    0.7950   -0.1133 C   0  0  0  0  0  0  0  0  0  0  0  0
    5.5895   -0.4664    0.3674 C   0  0  0  0  0  0  0  0  0  0  0  0
    6.0603   -1.4805   -0.4723 C   0  0  0  0  0  0  0  0  0  0  0  0
    6.4380   -2.7161    0.0832 C   0  0  0  0  0  0  0  0  0  0  0  0
    6.9116   -3.7513   -0.7168 C   0  0  0  0  0  0  0  0  0  0  0  0
    7.0133   -3.5617   -2.0851 C   0  0  0  0  0  0  0  0  0  0  0  0
    6.6398   -2.3369   -2.6468 C   0  0  0  0  0  0  0  0  0  0  0  0
    6.1514   -1.2572   -1.8635 C   0  0  0  0  0  0  0  0  0  0  0  0
    3.4239    1.1175    2.8321 C   0  0  0  0  0  0  0  0  0  0  0  0
    2.2738    0.7214    2.1096 C   0  0  0  0  0  0  0  0  0  0  0  0
    1.1283    0.2068    2.7407 C   0  0  0  0  0  0  0  0  0  0  0  0
   -0.0031   -0.1800    2.0038 C   0  0  0  0  0  0  0  0  0  0  0  0
   -1.1479   -0.6950    2.6339 C   0  0  0  0  0  0  0  0  0  0  0  0
   -2.2799   -1.0808    1.8960 C   0  0  0  0  0  0  0  0  0  0  0  0
   -3.4427   -1.6029    2.5098 C   0  0  0  0  0  0  0  0  0  0  0  0
   -7.2860    4.6529    0.4778 H   0  0  0  0  0  0  0  0  0  0  0  0
   -7.4568    4.7636   -1.9951 H   0  0  0  0  0  0  0  0  0  0  0  0
   -6.7692    2.8776   -3.3620 H   0  0  0  0  0  0  0  0  0  0  0  0
   -6.4183    2.6219    1.5555 H   0  0  0  0  0  0  0  0  0  0  0  0
   -5.5482    0.4118    1.4330 H   0  0  0  0  0  0  0  0  0  0  0  0
   -6.1462    1.2072   -4.4539 H   0  0  0  0  0  0  0  0  0  0  0  0
   -5.4167   -0.7354   -5.6705 H   0  0  0  0  0  0  0  0  0  0  0  0
   -4.4930   -3.0215   -5.7176 H   0  0  0  0  0  0  0  0  0  0  0  0
   -3.6399   -4.9976   -4.5204 H   0  0  0  0  0  0  0  0  0  0  0  0
   -3.5276   -5.0102   -2.0613 H   0  0  0  0  0  0  0  0  0  0  0  0
   -3.8979   -3.8909    0.0811 H   0  0  0  0  0  0  0  0  0  0  0  0
   -6.6047   -2.8168    1.9296 H   0  0  0  0  0  0  0  0  0  0  0  0
   -6.5659   -3.0268    4.3854 H   0  0  0  0  0  0  0  0  0  0  0  0
   -4.5768   -2.3427    5.6598 H   0  0  0  0  0  0  0  0  0  0  0  0
   -2.3184   -1.4471    5.7414 H   0  0  0  0  0  0  0  0  0  0  0  0
   -0.0407   -0.5412    5.8542 H   0  0  0  0  0  0  0  0  0  0  0  0
    2.2378    0.3627    5.9551 H   0  0  0  0  0  0  0  0  0  0  0  0
    4.4965    1.2543    6.0862 H   0  0  0  0  0  0  0  0  0  0  0  0
    6.5092    2.1564    5.0003 H   0  0  0  0  0  0  0  0  0  0  0  0
    6.5955    2.4097    2.5490 H   0  0  0  0  0  0  0  0  0  0  0  0
    3.9557    3.8314    0.8861 H   0  0  0  0  0  0  0  0  0  0  0  0
    4.5940    4.0310   -4.9697 H   0  0  0  0  0  0  0  0  0  0  0  0
    3.7657    5.7706   -3.4360 H   0  0  0  0  0  0  0  0  0  0  0  0
    3.6320    5.3347   -1.0163 H   0  0  0  0  0  0  0  0  0  0  0  0
    5.4783    1.7586   -5.3373 H   0  0  0  0  0  0  0  0  0  0  0  0
    6.1604   -0.3883   -4.4937 H   0  0  0  0  0  0  0  0  0  0  0  0
    5.5300   -0.6728    1.4357 H   0  0  0  0  0  0  0  0  0  0  0  0
    6.3636   -2.8821    1.1565 H   0  0  0  0  0  0  0  0  0  0  0  0
    7.1978   -4.6992   -0.2702 H   0  0  0  0  0  0  0  0  0  0  0  0
    7.3812   -4.3618   -2.7218 H   0  0  0  0  0  0  0  0  0  0  0  0
    6.7392   -2.2444   -3.7243 H   0  0  0  0  0  0  0  0  0  0  0  0
    2.2665    0.8125    1.0240 H   0  0  0  0  0  0  0  0  0  0  0  0
    0.0081   -0.0786    0.9192 H   0  0  0  0  0  0  0  0  0  0  0  0
   -2.2520   -0.9674    0.8128 H   0  0  0  0  0  0  0  0  0  0  0  0
  1  2  4  0
  2  3  4  0
  3  4  4  0
  4  5  4  0
  5  6  4  0
  5  7  4  0
  7  8  4  0
  8  9  4  0
  9 10  4  0
 10 11  4  0
 11 12  4  0
 12 13  4  0
 13 14  4  0
 14 15  4  0
 15 16  4  0
 16 17  4  0
 17 18  4  0
 17 19  4  0
 19 20  4  0
 20 21  1  0
 21 22  4  0
 22 23  4  0
 23 24  4  0
 24 25  4  0
 25 26  4  0
 26 27  4  0
 27 28  4  0
 28 29  4  0
 29 30  4  0
 30 31  4  0
 31 32  4  0
 32 33  4  0
 33 34  4  0
 34 35  4  0
 35 36  1  0
 36 37  4  0
 37 38  4  0
 38 39  4  0
 39 40  4  0
 40 41  4  0
 41 42  4  0
 42 43  4  0
 40 44  4  0
 44 45  4  0
 45 46  4  0
 46 47  4  0
 47 48  4  0
 48 49  4  0
 49 50  4  0
 50 51  4  0
 51 52  4  0
 52 53  4  0
 53 54  4  0
 54 55  4  0
 35 56  4  0
 56 57  4  0
 57 58  4  0
 58 59  4  0
 59 60  4  0
 60 61  4  0
 61 62  4  0
  6  1  4  0
 20  8  4  0
 62 21  4  0
 10  4  4  0
 18 13  4  0
 62 25  4  0
 18  9  4  0
 60 27  4  0
 58 29  4  0
 56 31  4  0
 48 36  4  0
 55 50  4  0
 43 38  4  0
 55 46  4  0
 47 39  4  0
  1 63  1  0
  2 64  1  0
  3 65  1  0
  6 66  1  0
  7 67  1  0
 11 68  1  0
 12 69  1  0
 14 70  1  0
 15 71  1  0
 16 72  1  0
 19 73  1  0
 22 74  1  0
 23 75  1  0
 24 76  1  0
 26 77  1  0
 28 78  1  0
 30 79  1  0
 32 80  1  0
 33 81  1  0
 34 82  1  0
 37 83  1  0
 41 84  1  0
 42 85  1  0
 43 86  1  0
 44 87  1  0
 45 88  1  0
 49 89  1  0
 51 90  1  0
 52 91  1  0
 53 92  1  0
 54 93  1  0
 57 94  1  0
 59 95  1  0
 61 96  1  0
M  END
