
     RDKit          3D

 96110  0  0  0  0  0  0  0  0999 V2000
   -6.1855   -5.8273   -4.4586 C   0  0  0  0  0  0  0  0  0  0  0  0
   -6.5070   -4.4723   -4.4892 C   0  0  0  0  0  0  0  0  0  0  0  0
   -6.2334   -3.6483   -3.3874 C   0  0  0  0  0  0  0  0  0  0  0  0
   -5.6249   -4.1970   -2.2322 C   0  0  0  0  0  0  0  0  0  0  0  0
   -5.3029   -5.5703   -2.2106 C   0  0  0  0  0  0  0  0  0  0  0  0
   -5.5868   -6.3734   -3.3257 C   0  0  0  0  0  0  0  0  0  0  0  0
   -4.7041   -6.1042   -1.0713 C   0  0  0  0  0  0  0  0  0  0  0  0
   -4.4260   -5.2926    0.0334 C   0  0  0  0  0  0  0  0  0  0  0  0
   -4.7290   -3.9094    0.0603 C   0  0  0  0  0  0  0  0  0  0  0  0
   -5.3393   -3.3754   -1.1039 C   0  0  0  0  0  0  0  0  0  0  0  0
   -5.6739   -2.0090   -1.1595 C   0  0  0  0  0  0  0  0  0  0  0  0
   -5.4017   -1.1870   -0.0623 C   0  0  0  0  0  0  0  0  0  0  0  0
   -4.7961   -1.6662    1.1163 C   0  0  0  0  0  0  0  0  0  0  0  0
   -4.5238   -0.8028    2.2221 C   0  0  0  0  0  0  0  0  0  0  0  0
   -4.8564    0.6400    2.2100 C   0  0  0  0  0  0  0  0  0  0  0  0
   -6.1011    1.0385    2.7318 C   0  0  0  0  0  0  0  0  0  0  0  0
   -6.4709    2.3786    2.7532 C   0  0  0  0  0  0  0  0  0  0  0  0
   -5.5999    3.3434    2.2554 C   0  0  0  0  0  0  0  0  0  0  0  0
   -4.3493    2.9854    1.7292 C   0  0  0  0  0  0  0  0  0  0  0  0
   -3.4828    3.9742    1.2321 C   0  0  0  0  0  0  0  0  0  0  0  0
   -2.2253    3.6519    0.6977 C   0  0  0  0  0  0  0  0  0  0  0  0
   -1.3579    4.6412    0.2030 C   0  0  0  0  0  0  0  0  0  0  0  0
   -0.0993    4.3128   -0.3301 C   0  0  0  0  0  0  0  0  0  0  0  0
    0.7735    5.2968   -0.8207 C   0  0  0  0  0  0  0  0  0  0  0  0
    2.0331    4.9689   -1.3517 C   0  0  0  0  0  0  0  0  0  0  0  0
    2.8821    5.9790   -1.8290 C   0  0  0  0  0  0  0  0  0  0  0  0
    4.1323    5.6733   -2.3592 C   0  0  0  0  0  0  0  0  0  0  0  0
    4.5511    4.3488   -2.4196 C   0  0  0  0  0  0  0  0  0  0  0  0
    3.7292    3.3080   -1.9489 C   0  0  0  0  0  0  0  0  0  0  0  0
    4.2322    1.9188   -2.0516 C   0  0  0  0  0  0  0  0  0  0  0  0
    4.9321    1.2692   -0.9880 C   0  0  0  0  0  0  0  0  0  0  0  0
    5.1911    1.9227    0.2333 C   0  0  0  0  0  0  0  0  0  0  0  0
    5.8680    1.3074    1.2906 C   0  0  0  0  0  0  0  0  0  0  0  0
    6.0973    2.0030    2.4861 C   0  0  0  0  0  0  0  0  0  0  0  0
    6.7707    1.4012    3.5480 C   0  0  0  0  0  0  0  0  0  0  0  0
    7.2315    0.0866    3.4396 C   0  0  0  0  0  0  0  0  0  0  0  0
    7.0065   -0.6287    2.2381 C   0  0  0  0  0  0  0  0  0  0  0  0
    7.4720   -1.9561    2.1305 C   0  0  0  0  0  0  0  0  0  0  0  0
    8.1488   -2.5503    3.2067 C   0  0  0  0  0  0  0  0  0  0  0  0
    8.3670   -1.8409    4.3853 C   0  0  0  0  0  0  0  0  0  0  0  0
    7.9108   -0.5298    4.5012 C   0  0  0  0  0  0  0  0  0  0  0  0
    7.2471   -2.6550    0.9461 C   0  0  0  0  0  0  0  0  0  0  0  0
    6.5718   -2.0508   -0.1194 C   0  0  0  0  0  0  0  0  0  0  0  0
    6.0857   -0.7217   -0.0607 C   0  0  0  0  0  0  0  0  0  0  0  0
    6.3191   -0.0188    1.1493 C   0  0  0  0  0  0  0  0  0  0  0  0
    5.3848   -0.0703   -1.1410 C   0  0  0  0  0  0  0  0  0  0  0  0
    5.1122   -0.7047   -2.3790 C   0  0  0  0  0  0  0  0  0  0  0  0
    4.4328   -0.0698   -3.4172 C   0  0  0  0  0  0  0  0  0  0  0  0
    3.9966    1.2333   -3.2535 C   0  0  0  0  0  0  0  0  0  0  0  0
    2.4474    3.6166   -1.4054 C   0  0  0  0  0  0  0  0  0  0  0  0
    1.5553    2.6376   -0.9079 C   0  0  0  0  0  0  0  0  0  0  0  0
    0.2980    2.9659   -0.3728 C   0  0  0  0  0  0  0  0  0  0  0  0
   -0.5691    1.9773    0.1214 C   0  0  0  0  0  0  0  0  0  0  0  0
   -1.8253    2.3057    0.6575 C   0  0  0  0  0  0  0  0  0  0  0  0
   -2.6913    1.3171    1.1553 C   0  0  0  0  0  0  0  0  0  0  0  0
   -3.9607    1.6249    1.6994 C   0  0  0  0  0  0  0  0  0  0  0  0
   -3.9172   -1.3181    3.3781 C   0  0  0  0  0  0  0  0  0  0  0  0
   -3.5772   -2.6573    3.4560 C   0  0  0  0  0  0  0  0  0  0  0  0
   -3.8422   -3.4997    2.3776 C   0  0  0  0  0  0  0  0  0  0  0  0
   -4.4532   -3.0446    1.1821 C   0  0  0  0  0  0  0  0  0  0  0  0
   -6.2754   -1.4794   -2.3098 C   0  0  0  0  0  0  0  0  0  0  0  0
   -6.5523   -2.2882   -3.4108 C   0  0  0  0  0  0  0  0  0  0  0  0
   -6.4013   -6.4573   -5.3174 H   0  0  0  0  0  0  0  0  0  0  0  0
   -6.9738   -4.0624   -5.3821 H   0  0  0  0  0  0  0  0  0  0  0  0
   -5.3422   -7.4333   -3.3188 H   0  0  0  0  0  0  0  0  0  0  0  0
   -4.4446   -7.1595   -1.0254 H   0  0  0  0  0  0  0  0  0  0  0  0
   -3.9589   -5.7801    0.8841 H   0  0  0  0  0  0  0  0  0  0  0  0
   -5.6711   -0.1338   -0.1358 H   0  0  0  0  0  0  0  0  0  0  0  0
   -6.7899    0.2913    3.1226 H   0  0  0  0  0  0  0  0  0  0  0  0
   -7.4362    2.6710    3.1578 H   0  0  0  0  0  0  0  0  0  0  0  0
   -5.9080    4.3867    2.2821 H   0  0  0  0  0  0  0  0  0  0  0  0
   -3.7931    5.0176    1.2621 H   0  0  0  0  0  0  0  0  0  0  0  0
   -1.6673    5.6844    0.2344 H   0  0  0  0  0  0  0  0  0  0  0  0
    0.4655    6.3407   -0.7867 H   0  0  0  0  0  0  0  0  0  0  0  0
    2.5726    7.0215   -1.7907 H   0  0  0  0  0  0  0  0  0  0  0  0
    4.7787    6.4665   -2.7253 H   0  0  0  0  0  0  0  0  0  0  0  0
    5.5310    4.1203   -2.8358 H   0  0  0  0  0  0  0  0  0  0  0  0
    4.8527    2.9489    0.3733 H   0  0  0  0  0  0  0  0  0  0  0  0
    5.7501    3.0280    2.6023 H   0  0  0  0  0  0  0  0  0  0  0  0
    6.9312    1.9717    4.4599 H   0  0  0  0  0  0  0  0  0  0  0  0
    8.5120   -3.5730    3.1334 H   0  0  0  0  0  0  0  0  0  0  0  0
    8.8925   -2.3095    5.2133 H   0  0  0  0  0  0  0  0  0  0  0  0
    8.0902    0.0093    5.4288 H   0  0  0  0  0  0  0  0  0  0  0  0
    7.5940   -3.6798    0.8340 H   0  0  0  0  0  0  0  0  0  0  0  0
    6.4345   -2.6581   -1.0093 H   0  0  0  0  0  0  0  0  0  0  0  0
    5.4295   -1.7267   -2.5655 H   0  0  0  0  0  0  0  0  0  0  0  0
    4.2464   -0.5957   -4.3498 H   0  0  0  0  0  0  0  0  0  0  0  0
    3.4627    1.7230   -4.0658 H   0  0  0  0  0  0  0  0  0  0  0  0
    1.8469    1.5884   -0.9326 H   0  0  0  0  0  0  0  0  0  0  0  0
   -0.2598    0.9334    0.0894 H   0  0  0  0  0  0  0  0  0  0  0  0
   -2.3656    0.2783    1.1134 H   0  0  0  0  0  0  0  0  0  0  0  0
   -3.7052   -0.6637    4.2217 H   0  0  0  0  0  0  0  0  0  0  0  0
   -3.1049   -3.0502    4.3524 H   0  0  0  0  0  0  0  0  0  0  0  0
   -3.5528   -4.5399    2.4967 H   0  0  0  0  0  0  0  0  0  0  0  0
   -6.5349   -0.4236   -2.3596 H   0  0  0  0  0  0  0  0  0  0  0  0
   -7.0192   -1.8432   -4.2864 H   0  0  0  0  0  0  0  0  0  0  0  0
  1  2  4  0
  2  3  4  0
  3  4  4  0
  4  5  4  0
  5  6  4  0
  5  7  4  0
  7  8  4  0
  8  9  4  0
  9 10  4  0
 10 11  4  0
 11 12  4  0
 12 13  4  0
 13 14  4  0
 14 15  1  0
 15 16  4  0
 16 17  4  0
 17 18  4  0
 18 19  4  0
 19 20  4  0
 20 21  4  0
 21 22  4  0
 22 23  4  0
 23 24  4  0
 24 25  4  0
 25 26  4  0
 26 27  4  0
 27 28  4  0
 28 29  4  0
 29 30  1  0
 30 31  4  0
 31 32  4  0
 32 33  4  0
 33 34  4  0
 34 35  4  0
 35 36  4  0
 36 37  4  0
 37 38  4  0
 38 39  4  0
 39 40  4  0
 40 41  4  0
 38 42  4  0
 42 43  4  0
 43 44  4  0
 44 45  4  0
 44 46  4  0
 46 47  4  0
 47 48  4  0
 48 49  4  0
 29 50  4  0
 50 51  4  0
 51 52  4  0
 52 53  4  0
 53 54  4  0
 54 55  4  0
 55 56  4  0
 14 57  4  0
 57 58  4  0
 58 59  4  0
 59 60  4  0
 11 61  4  0
 61 62  4  0
  6  1  4  0
 60  9  4  0
 62  3  4  0
 10  4  4  0
 60 13  4  0
 56 15  4  0
 56 19  4  0
 54 21  4  0
 52 23  4  0
 50 25  4  0
 49 30  4  0
 46 31  4  0
 45 33  4  0
 41 36  4  0
 45 37  4  0
  1 63  1  0
  2 64  1  0
  6 65  1  0
  7 66  1  0
  8 67  1  0
 12 68  1  0
 16 69  1  0
 17 70  1  0
 18 71  1  0
 20 72  1  0
 22 73  1  0
 24 74  1  0
 26 75  1  0
 27 76  1  0
 28 77  1  0
 32 78  1  0
 34 79  1  0
 35 80  1  0
 39 81  1  0
 40 82  1  0
 41 83  1  0
 42 84  1  0
 43 85  1  0
 47 86  1  0
 48 87  1  0
 49 88  1  0
 51 89  1  0
 53 90  1  0
 55 91  1  0
 57 92  1  0
 58 93  1  0
 59 94  1  0
 61 95  1  0
 62 96  1  0
M  END
