
     RDKit          3D

 96110  0  0  0  0  0  0  0  0999 V2000
    6.3281    4.9065    3.8148 C   0  0  0  0  0  0  0  0  0  0  0  0
    6.0006    4.0251    4.8426 C   0  0  0  0  0  0  0  0  0  0  0  0
    5.6689    2.6914    4.5618 C   0  0  0  0  0  0  0  0  0  0  0  0
    5.6668    2.2355    3.2211 C   0  0  0  0  0  0  0  0  0  0  0  0
    5.9996    3.1355    2.1858 C   0  0  0  0  0  0  0  0  0  0  0  0
    6.3276    4.4644    2.4939 C   0  0  0  0  0  0  0  0  0  0  0  0
    5.9946    2.6813    0.8676 C   0  0  0  0  0  0  0  0  0  0  0  0
    5.6665    1.3545    0.5729 C   0  0  0  0  0  0  0  0  0  0  0  0
    5.3273    0.4171    1.5765 C   0  0  0  0  0  0  0  0  0  0  0  0
    5.3323    0.8856    2.9174 C   0  0  0  0  0  0  0  0  0  0  0  0
    5.0014    0.0117    3.9756 C   0  0  0  0  0  0  0  0  0  0  0  0
    4.6661   -1.3158    3.6963 C   0  0  0  0  0  0  0  0  0  0  0  0
    4.6504   -1.8064    2.3868 C   0  0  0  0  0  0  0  0  0  0  0  0
    4.3013   -3.1472    2.1571 C   0  0  0  0  0  0  0  0  0  0  0  0
    4.2690   -3.6728    0.8669 C   0  0  0  0  0  0  0  0  0  0  0  0
    4.5883   -2.8687   -0.2260 C   0  0  0  0  0  0  0  0  0  0  0  0
    4.5548   -3.4075   -1.5963 C   0  0  0  0  0  0  0  0  0  0  0  0
    5.6172   -4.2313   -2.0117 C   0  0  0  0  0  0  0  0  0  0  0  0
    5.6541   -4.7585   -3.2979 C   0  0  0  0  0  0  0  0  0  0  0  0
    4.6278   -4.4692   -4.1920 C   0  0  0  0  0  0  0  0  0  0  0  0
    3.5498   -3.6542   -3.8149 C   0  0  0  0  0  0  0  0  0  0  0  0
    2.5231   -3.3742   -4.7331 C   0  0  0  0  0  0  0  0  0  0  0  0
    1.4273   -2.5663   -4.3913 C   0  0  0  0  0  0  0  0  0  0  0  0
    0.4030   -2.2854   -5.3116 C   0  0  0  0  0  0  0  0  0  0  0  0
   -0.6935   -1.4775   -4.9645 C   0  0  0  0  0  0  0  0  0  0  0  0
   -1.7183   -1.1946   -5.8809 C   0  0  0  0  0  0  0  0  0  0  0  0
   -2.8162   -0.3878   -5.5360 C   0  0  0  0  0  0  0  0  0  0  0  0
   -3.8213   -0.1257   -6.4794 C   0  0  0  0  0  0  0  0  0  0  0  0
   -4.9158    0.6709   -6.1568 C   0  0  0  0  0  0  0  0  0  0  0  0
   -5.0201    1.2164   -4.8820 C   0  0  0  0  0  0  0  0  0  0  0  0
   -4.0329    0.9760   -3.9089 C   0  0  0  0  0  0  0  0  0  0  0  0
   -4.2084    1.5811   -2.5790 C   0  0  0  0  0  0  0  0  0  0  0  0
   -3.7924    2.8880   -2.3304 C   0  0  0  0  0  0  0  0  0  0  0  0
   -3.9613    3.4477   -1.0658 C   0  0  0  0  0  0  0  0  0  0  0  0
   -4.5506    2.7174   -0.0211 C   0  0  0  0  0  0  0  0  0  0  0  0
   -4.7005    3.3160    1.2337 C   0  0  0  0  0  0  0  0  0  0  0  0
   -5.2799    2.6320    2.3057 C   0  0  0  0  0  0  0  0  0  0  0  0
   -5.4182    3.2560    3.5531 C   0  0  0  0  0  0  0  0  0  0  0  0
   -5.9942    2.5836    4.6302 C   0  0  0  0  0  0  0  0  0  0  0  0
   -6.4466    1.2691    4.4855 C   0  0  0  0  0  0  0  0  0  0  0  0
   -6.3141    0.6245    3.2314 C   0  0  0  0  0  0  0  0  0  0  0  0
   -6.7710   -0.7030    3.0868 C   0  0  0  0  0  0  0  0  0  0  0  0
   -7.3484   -1.3663    4.1803 C   0  0  0  0  0  0  0  0  0  0  0  0
   -7.4760   -0.7267    5.4112 C   0  0  0  0  0  0  0  0  0  0  0  0
   -7.0276    0.5835    5.5626 C   0  0  0  0  0  0  0  0  0  0  0  0
   -6.6376   -1.3326    1.8499 C   0  0  0  0  0  0  0  0  0  0  0  0
   -6.0606   -0.6613    0.7674 C   0  0  0  0  0  0  0  0  0  0  0  0
   -5.5890    0.6689    0.8645 C   0  0  0  0  0  0  0  0  0  0  0  0
   -5.7271    1.3050    2.1272 C   0  0  0  0  0  0  0  0  0  0  0  0
   -4.9904    1.3882   -0.2295 C   0  0  0  0  0  0  0  0  0  0  0  0
   -4.8021    0.8538   -1.5317 C   0  0  0  0  0  0  0  0  0  0  0  0
   -2.9087    0.1621   -4.2350 C   0  0  0  0  0  0  0  0  0  0  0  0
   -1.8651   -0.1309   -3.3242 C   0  0  0  0  0  0  0  0  0  0  0  0
   -0.7672   -0.9386   -3.6693 C   0  0  0  0  0  0  0  0  0  0  0  0
    0.2577   -1.2191   -2.7497 C   0  0  0  0  0  0  0  0  0  0  0  0
    1.3539   -2.0272   -3.0965 C   0  0  0  0  0  0  0  0  0  0  0  0
    2.3800   -2.3086   -2.1777 C   0  0  0  0  0  0  0  0  0  0  0  0
    3.4969   -3.1143   -2.5074 C   0  0  0  0  0  0  0  0  0  0  0  0
    4.9466   -1.5288    0.0096 C   0  0  0  0  0  0  0  0  0  0  0  0
    4.9826   -0.9539    1.3071 C   0  0  0  0  0  0  0  0  0  0  0  0
    5.0085    0.4783    5.2973 C   0  0  0  0  0  0  0  0  0  0  0  0
    5.3383    1.8015    5.5877 C   0  0  0  0  0  0  0  0  0  0  0  0
    6.5835    5.9378    4.0432 H   0  0  0  0  0  0  0  0  0  0  0  0
    6.0059    4.3879    5.8680 H   0  0  0  0  0  0  0  0  0  0  0  0
    6.5855    5.1662    1.7039 H   0  0  0  0  0  0  0  0  0  0  0  0
    6.2456    3.3529    0.0495 H   0  0  0  0  0  0  0  0  0  0  0  0
    5.6818    1.0708   -0.4758 H   0  0  0  0  0  0  0  0  0  0  0  0
    4.4097   -1.9823    4.5186 H   0  0  0  0  0  0  0  0  0  0  0  0
    4.0447   -3.8008    2.9887 H   0  0  0  0  0  0  0  0  0  0  0  0
    3.9864   -4.7129    0.7194 H   0  0  0  0  0  0  0  0  0  0  0  0
    6.4306   -4.4574   -1.3241 H   0  0  0  0  0  0  0  0  0  0  0  0
    6.4832   -5.3909   -3.6042 H   0  0  0  0  0  0  0  0  0  0  0  0
    4.6762   -4.8892   -5.1946 H   0  0  0  0  0  0  0  0  0  0  0  0
    2.5771   -3.7940   -5.7364 H   0  0  0  0  0  0  0  0  0  0  0  0
    0.4599   -2.7031   -6.3152 H   0  0  0  0  0  0  0  0  0  0  0  0
   -1.6594   -1.6117   -6.8850 H   0  0  0  0  0  0  0  0  0  0  0  0
   -3.7580   -0.5437   -7.4821 H   0  0  0  0  0  0  0  0  0  0  0  0
   -5.6871    0.8653   -6.8973 H   0  0  0  0  0  0  0  0  0  0  0  0
   -5.8824    1.8351   -4.6387 H   0  0  0  0  0  0  0  0  0  0  0  0
   -3.3291    3.4761   -3.1196 H   0  0  0  0  0  0  0  0  0  0  0  0
   -3.6234    4.4694   -0.9031 H   0  0  0  0  0  0  0  0  0  0  0  0
   -4.3580    4.3393    1.3806 H   0  0  0  0  0  0  0  0  0  0  0  0
   -5.0764    4.2786    3.6995 H   0  0  0  0  0  0  0  0  0  0  0  0
   -6.0855    3.0985    5.5838 H   0  0  0  0  0  0  0  0  0  0  0  0
   -7.7036   -2.3894    4.0793 H   0  0  0  0  0  0  0  0  0  0  0  0
   -7.9247   -1.2490    6.2520 H   0  0  0  0  0  0  0  0  0  0  0  0
   -7.1351    1.0676    6.5308 H   0  0  0  0  0  0  0  0  0  0  0  0
   -6.9806   -2.3554    1.7098 H   0  0  0  0  0  0  0  0  0  0  0  0
   -5.9886   -1.2134   -0.1655 H   0  0  0  0  0  0  0  0  0  0  0  0
   -5.1184   -0.1619   -1.7571 H   0  0  0  0  0  0  0  0  0  0  0  0
   -1.9050    0.2809   -2.3165 H   0  0  0  0  0  0  0  0  0  0  0  0
    0.2018   -0.8004   -1.7459 H   0  0  0  0  0  0  0  0  0  0  0  0
    2.3022   -1.8875   -1.1759 H   0  0  0  0  0  0  0  0  0  0  0  0
    5.1974   -0.9281   -0.8616 H   0  0  0  0  0  0  0  0  0  0  0  0
    4.7550   -0.1882    6.1192 H   0  0  0  0  0  0  0  0  0  0  0  0
    5.3333    2.1296    6.6246 H   0  0  0  0  0  0  0  0  0  0  0  0
  1  2  4  0
  2  3  4  0
  3  4  4  0
  4  5  4  0
  5  6  4  0
  5  7  4  0
  7  8  4  0
  8  9  4  0
  9 10  4  0
 10 11  4  0
 11 12  4  0
 12 13  4  0
 13 14  4  0
 14 15  4  0
 15 16  4  0
 16 17  1  0
 17 18  4  0
 18 19  4  0
 19 20  4  0
 20 21  4  0
 21 22  4  0
 22 23  4  0
 23 24  4  0
 24 25  4  0
 25 26  4  0
 26 27  4  0
 27 28  4  0
 28 29  4  0
 29 30  4  0
 30 31  4  0
 31 32  1  0
 32 33  4  0
 33 34  4  0
 34 35  4  0
 35 36  4  0
 36 37  4  0
 37 38  4  0
 38 39  4  0
 39 40  4  0
 40 41  4  0
 41 42  4  0
 42 43  4  0
 43 44  4  0
 44 45  4  0
 42 46  4  0
 46 47  4  0
 47 48  4  0
 48 49  4  0
 48 50  4  0
 50 51  4  0
 31 52  4  0
 52 53  4  0
 53 54  4  0
 54 55  4  0
 55 56  4  0
 56 57  4  0
 57 58  4  0
 16 59  4  0
 59 60  4  0
 11 61  4  0
 61 62  4  0
  6  1  4  0
 60  9  4  0
 62  3  4  0
 10  4  4  0
 60 13  4  0
 58 17  4  0
 58 21  4  0
 56 23  4  0
 54 25  4  0
 52 27  4  0
 51 32  4  0
 50 35  4  0
 49 37  4  0
 45 40  4  0
 49 41  4  0
  1 63  1  0
  2 64  1  0
  6 65  1  0
  7 66  1  0
  8 67  1  0
 12 68  1  0
 14 69  1  0
 15 70  1  0
 18 71  1  0
 19 72  1  0
 20 73  1  0
 22 74  1  0
 24 75  1  0
 26 76  1  0
 28 77  1  0
 29 78  1  0
 30 79  1  0
 33 80  1  0
 34 81  1  0
 36 82  1  0
 38 83  1  0
 39 84  1  0
 43 85  1  0
 44 86  1  0
 45 87  1  0
 46 88  1  0
 47 89  1  0
 51 90  1  0
 53 91  1  0
 55 92  1  0
 57 93  1  0
 59 94  1  0
 61 95  1  0
 62 96  1  0
M  END
