
     RDKit          3D

 68 76  0  0  0  0  0  0  0  0999 V2000
    5.4836    1.8495   -3.1644 C   0  0  0  0  0  0  0  0  0  0  0  0
    5.3139    0.6135   -3.7864 C   0  0  0  0  0  0  0  0  0  0  0  0
    5.0920   -0.5517   -3.0333 C   0  0  0  0  0  0  0  0  0  0  0  0
    4.9205   -1.7854   -3.6786 C   0  0  0  0  0  0  0  0  0  0  0  0
    4.6986   -2.9499   -2.9494 C   0  0  0  0  0  0  0  0  0  0  0  0
    4.6441   -2.8954   -1.5608 C   0  0  0  0  0  0  0  0  0  0  0  0
    4.8095   -1.6766   -0.8764 C   0  0  0  0  0  0  0  0  0  0  0  0
    4.7361   -1.6913    0.6005 C   0  0  0  0  0  0  0  0  0  0  0  0
    5.9123   -1.9714    1.3205 C   0  0  0  0  0  0  0  0  0  0  0  0
    5.9090   -2.0035    2.7105 C   0  0  0  0  0  0  0  0  0  0  0  0
    4.7275   -1.7577    3.4040 C   0  0  0  0  0  0  0  0  0  0  0  0
    3.5343   -1.4762    2.7213 C   0  0  0  0  0  0  0  0  0  0  0  0
    2.3511   -1.2305    3.4391 C   0  0  0  0  0  0  0  0  0  0  0  0
    1.1399   -0.9446    2.7896 C   0  0  0  0  0  0  0  0  0  0  0  0
   -0.0428   -0.6996    3.5084 C   0  0  0  0  0  0  0  0  0  0  0  0
   -1.2533   -0.4140    2.8533 C   0  0  0  0  0  0  0  0  0  0  0  0
   -2.4371   -0.1704    3.5671 C   0  0  0  0  0  0  0  0  0  0  0  0
   -3.6486    0.1137    2.9138 C   0  0  0  0  0  0  0  0  0  0  0  0
   -4.8127    0.3511    3.6604 C   0  0  0  0  0  0  0  0  0  0  0  0
   -6.0219    0.6326    3.0317 C   0  0  0  0  0  0  0  0  0  0  0  0
   -6.0828    0.6804    1.6436 C   0  0  0  0  0  0  0  0  0  0  0  0
   -4.9365    0.4503    0.8605 C   0  0  0  0  0  0  0  0  0  0  0  0
   -5.0744    0.5127   -0.6104 C   0  0  0  0  0  0  0  0  0  0  0  0
   -4.8694    1.7162   -1.3460 C   0  0  0  0  0  0  0  0  0  0  0  0
   -4.5143    2.9475   -0.7461 C   0  0  0  0  0  0  0  0  0  0  0  0
   -4.3200    4.1047   -1.5034 C   0  0  0  0  0  0  0  0  0  0  0  0
   -4.4755    4.0632   -2.8822 C   0  0  0  0  0  0  0  0  0  0  0  0
   -4.8247    2.8651   -3.5035 C   0  0  0  0  0  0  0  0  0  0  0  0
   -5.0235    1.6924   -2.7558 C   0  0  0  0  0  0  0  0  0  0  0  0
   -5.3740    0.4971   -3.4010 C   0  0  0  0  0  0  0  0  0  0  0  0
   -5.5746   -0.6747   -2.6772 C   0  0  0  0  0  0  0  0  0  0  0  0
   -5.4263   -0.6661   -1.2944 C   0  0  0  0  0  0  0  0  0  0  0  0
   -3.6956    0.1605    1.4999 C   0  0  0  0  0  0  0  0  0  0  0  0
   -2.4927   -0.0847    0.7957 C   0  0  0  0  0  0  0  0  0  0  0  0
   -1.2813   -0.3704    1.4494 C   0  0  0  0  0  0  0  0  0  0  0  0
   -0.0983   -0.6137    0.7314 C   0  0  0  0  0  0  0  0  0  0  0  0
    1.1112   -0.9021    1.3857 C   0  0  0  0  0  0  0  0  0  0  0  0
    2.2942   -1.1490    0.6678 C   0  0  0  0  0  0  0  0  0  0  0  0
    3.5232   -1.4395    1.3065 C   0  0  0  0  0  0  0  0  0  0  0  0
    5.0397   -0.4812   -1.6177 C   0  0  0  0  0  0  0  0  0  0  0  0
    5.2174    0.7876   -1.0174 C   0  0  0  0  0  0  0  0  0  0  0  0
    5.4351    1.9370   -1.7798 C   0  0  0  0  0  0  0  0  0  0  0  0
    5.6525    2.7413   -3.7618 H   0  0  0  0  0  0  0  0  0  0  0  0
    5.3553    0.5665   -4.8726 H   0  0  0  0  0  0  0  0  0  0  0  0
    4.9590   -1.8481   -4.7642 H   0  0  0  0  0  0  0  0  0  0  0  0
    4.5671   -3.8986   -3.4629 H   0  0  0  0  0  0  0  0  0  0  0  0
    4.4656   -3.8117   -1.0005 H   0  0  0  0  0  0  0  0  0  0  0  0
    6.8420   -2.1627    0.7872 H   0  0  0  0  0  0  0  0  0  0  0  0
    6.8257   -2.2194    3.2527 H   0  0  0  0  0  0  0  0  0  0  0  0
    4.7457   -1.7876    4.4916 H   0  0  0  0  0  0  0  0  0  0  0  0
    2.3731   -1.2622    4.5272 H   0  0  0  0  0  0  0  0  0  0  0  0
   -0.0210   -0.7310    4.5960 H   0  0  0  0  0  0  0  0  0  0  0  0
   -2.4147   -0.2034    4.6551 H   0  0  0  0  0  0  0  0  0  0  0  0
   -4.7861    0.3179    4.7478 H   0  0  0  0  0  0  0  0  0  0  0  0
   -6.9155    0.8143    3.6229 H   0  0  0  0  0  0  0  0  0  0  0  0
   -7.0332    0.9027    1.1611 H   0  0  0  0  0  0  0  0  0  0  0  0
   -4.3816    3.0170    0.3320 H   0  0  0  0  0  0  0  0  0  0  0  0
   -4.0466    5.0344   -1.0115 H   0  0  0  0  0  0  0  0  0  0  0  0
   -4.3249    4.9609   -3.4756 H   0  0  0  0  0  0  0  0  0  0  0  0
   -4.9410    2.8536   -4.5852 H   0  0  0  0  0  0  0  0  0  0  0  0
   -5.4946    0.4706   -4.4820 H   0  0  0  0  0  0  0  0  0  0  0  0
   -5.8454   -1.5935   -3.1903 H   0  0  0  0  0  0  0  0  0  0  0  0
   -5.5828   -1.5890   -0.7384 H   0  0  0  0  0  0  0  0  0  0  0  0
   -2.4962   -0.0512   -0.2931 H   0  0  0  0  0  0  0  0  0  0  0  0
   -0.1187   -0.5771   -0.3569 H   0  0  0  0  0  0  0  0  0  0  0  0
    2.2547   -1.1106   -0.4202 H   0  0  0  0  0  0  0  0  0  0  0  0
    5.1840    0.8943    0.0654 H   0  0  0  0  0  0  0  0  0  0  0  0
    5.5648    2.8969   -1.2869 H   0  0  0  0  0  0  0  0  0  0  0  0
  1  2  4  0
  2  3  4  0
  3  4  4  0
  4  5  4  0
  5  6  4  0
  6  7  4  0
  7  8  1  0
  8  9  4  0
  9 10  4  0
 10 11  4  0
 11 12  4  0
 12 13  4  0
 13 14  4  0
 14 15  4  0
 15 16  4  0
 16 17  4  0
 17 18  4  0
 18 19  4  0
 19 20  4  0
 20 21  4  0
 21 22  4  0
 22 23  1  0
 23 24  4  0
 24 25  4  0
 25 26  4  0
 26 27  4  0
 27 28  4  0
 28 29  4  0
 29 30  4  0
 30 31  4  0
 31 32  4  0
 22 33  4  0
 33 34  4  0
 34 35  4  0
 35 36  4  0
 36 37  4  0
 37 38  4  0
 38 39  4  0
  7 40  4  0
 40 41  4  0
 41 42  4  0
 42  1  4  0
 40  3  4  0
 39  8  4  0
 39 12  4  0
 37 14  4  0
 35 16  4  0
 33 18  4  0
 32 23  4  0
 29 24  4  0
  1 43  1  0
  2 44  1  0
  4 45  1  0
  5 46  1  0
  6 47  1  0
  9 48  1  0
 10 49  1  0
 11 50  1  0
 13 51  1  0
 15 52  1  0
 17 53  1  0
 19 54  1  0
 20 55  1  0
 21 56  1  0
 25 57  1  0
 26 58  1  0
 27 59  1  0
 28 60  1  0
 30 61  1  0
 31 62  1  0
 32 63  1  0
 34 64  1  0
 36 65  1  0
 38 66  1  0
 41 67  1  0
 42 68  1  0
M  END
