
     RDKit          3D

 68 76  0  0  0  0  0  0  0  0999 V2000
    5.4154    5.0139   -0.5961 C   0  0  0  0  0  0  0  0  0  0  0  0
    5.3327    4.0754   -1.6258 C   0  0  0  0  0  0  0  0  0  0  0  0
    5.2366    2.7040   -1.3402 C   0  0  0  0  0  0  0  0  0  0  0  0
    5.1496    1.7478   -2.3630 C   0  0  0  0  0  0  0  0  0  0  0  0
    5.0495    0.3873   -2.0612 C   0  0  0  0  0  0  0  0  0  0  0  0
    5.0336   -0.0495   -0.7311 C   0  0  0  0  0  0  0  0  0  0  0  0
    4.9139   -1.4808   -0.4116 C   0  0  0  0  0  0  0  0  0  0  0  0
    6.0820   -2.2641   -0.4191 C   0  0  0  0  0  0  0  0  0  0  0  0
    6.0352   -3.6205   -0.1158 C   0  0  0  0  0  0  0  0  0  0  0  0
    4.8178   -4.2159    0.2012 C   0  0  0  0  0  0  0  0  0  0  0  0
    3.6308   -3.4677    0.2177 C   0  0  0  0  0  0  0  0  0  0  0  0
    2.4102   -4.0853    0.5410 C   0  0  0  0  0  0  0  0  0  0  0  0
    1.2039   -3.3674    0.5658 C   0  0  0  0  0  0  0  0  0  0  0  0
   -0.0163   -3.9840    0.8923 C   0  0  0  0  0  0  0  0  0  0  0  0
   -1.2208   -3.2596    0.9165 C   0  0  0  0  0  0  0  0  0  0  0  0
   -2.4417   -3.8695    1.2443 C   0  0  0  0  0  0  0  0  0  0  0  0
   -3.6460   -3.1448    1.2705 C   0  0  0  0  0  0  0  0  0  0  0  0
   -4.8482   -3.7873    1.6028 C   0  0  0  0  0  0  0  0  0  0  0  0
   -6.0502   -3.0862    1.6339 C   0  0  0  0  0  0  0  0  0  0  0  0
   -6.0652   -1.7287    1.3329 C   0  0  0  0  0  0  0  0  0  0  0  0
   -4.8806   -1.0494    0.9959 C   0  0  0  0  0  0  0  0  0  0  0  0
   -4.9667    0.3875    0.6907 C   0  0  0  0  0  0  0  0  0  0  0  0
   -4.7690    1.3442    1.6940 C   0  0  0  0  0  0  0  0  0  0  0  0
   -4.8447    2.7085    1.4027 C   0  0  0  0  0  0  0  0  0  0  0  0
   -5.1211    3.1482    0.0996 C   0  0  0  0  0  0  0  0  0  0  0  0
   -5.1978    4.5155   -0.2109 C   0  0  0  0  0  0  0  0  0  0  0  0
   -5.4726    4.9369   -1.5129 C   0  0  0  0  0  0  0  0  0  0  0  0
   -5.6736    3.9976   -2.5200 C   0  0  0  0  0  0  0  0  0  0  0  0
   -5.6010    2.6348   -2.2274 C   0  0  0  0  0  0  0  0  0  0  0  0
   -5.3258    2.1943   -0.9228 C   0  0  0  0  0  0  0  0  0  0  0  0
   -5.2478    0.8259   -0.6129 C   0  0  0  0  0  0  0  0  0  0  0  0
   -3.6475   -1.7636    0.9609 C   0  0  0  0  0  0  0  0  0  0  0  0
   -2.4087   -1.1654    0.6296 C   0  0  0  0  0  0  0  0  0  0  0  0
   -1.2046   -1.8898    0.6051 C   0  0  0  0  0  0  0  0  0  0  0  0
    0.0145   -1.2742    0.2771 C   0  0  0  0  0  0  0  0  0  0  0  0
    1.2184   -1.9974    0.2557 C   0  0  0  0  0  0  0  0  0  0  0  0
    2.4382   -1.3801   -0.0683 C   0  0  0  0  0  0  0  0  0  0  0  0
    3.6641   -2.0871   -0.0921 C   0  0  0  0  0  0  0  0  0  0  0  0
    5.1273    0.9058    0.2936 C   0  0  0  0  0  0  0  0  0  0  0  0
    5.2255    2.2776    0.0070 C   0  0  0  0  0  0  0  0  0  0  0  0
    5.3097    3.2344    1.0312 C   0  0  0  0  0  0  0  0  0  0  0  0
    5.4039    4.5941    0.7308 C   0  0  0  0  0  0  0  0  0  0  0  0
    5.4886    6.0724   -0.8312 H   0  0  0  0  0  0  0  0  0  0  0  0
    5.3430    4.4232   -2.6563 H   0  0  0  0  0  0  0  0  0  0  0  0
    5.1554    2.0550   -3.4063 H   0  0  0  0  0  0  0  0  0  0  0  0
    4.9753   -0.3344   -2.8722 H   0  0  0  0  0  0  0  0  0  0  0  0
    7.0404   -1.8076   -0.6606 H   0  0  0  0  0  0  0  0  0  0  0  0
    6.9465   -4.2125   -0.1243 H   0  0  0  0  0  0  0  0  0  0  0  0
    4.8024   -5.2780    0.4372 H   0  0  0  0  0  0  0  0  0  0  0  0
    2.3981   -5.1476    0.7792 H   0  0  0  0  0  0  0  0  0  0  0  0
   -0.0283   -5.0454    1.1327 H   0  0  0  0  0  0  0  0  0  0  0  0
   -2.4545   -4.9314    1.4845 H   0  0  0  0  0  0  0  0  0  0  0  0
   -4.8572   -4.8487    1.8419 H   0  0  0  0  0  0  0  0  0  0  0  0
   -6.9736   -3.5972    1.8931 H   0  0  0  0  0  0  0  0  0  0  0  0
   -7.0107   -1.1896    1.3617 H   0  0  0  0  0  0  0  0  0  0  0  0
   -4.5489    1.0280    2.7118 H   0  0  0  0  0  0  0  0  0  0  0  0
   -4.6843    3.4264    2.2039 H   0  0  0  0  0  0  0  0  0  0  0  0
   -5.0432    5.2643    0.5626 H   0  0  0  0  0  0  0  0  0  0  0  0
   -5.5291    5.9983   -1.7394 H   0  0  0  0  0  0  0  0  0  0  0  0
   -5.8869    4.3239   -3.5344 H   0  0  0  0  0  0  0  0  0  0  0  0
   -5.7601    1.9156   -3.0278 H   0  0  0  0  0  0  0  0  0  0  0  0
   -5.4016    0.0854   -1.3964 H   0  0  0  0  0  0  0  0  0  0  0  0
   -2.3770   -0.1049    0.3826 H   0  0  0  0  0  0  0  0  0  0  0  0
    0.0267   -0.2122    0.0354 H   0  0  0  0  0  0  0  0  0  0  0  0
    2.4298   -0.3179   -0.3092 H   0  0  0  0  0  0  0  0  0  0  0  0
    5.1155    0.5699    1.3295 H   0  0  0  0  0  0  0  0  0  0  0  0
    5.3025    2.9252    2.0741 H   0  0  0  0  0  0  0  0  0  0  0  0
    5.4680    5.3238    1.5336 H   0  0  0  0  0  0  0  0  0  0  0  0
  1  2  4  0
  2  3  4  0
  3  4  4  0
  4  5  4  0
  5  6  4  0
  6  7  1  0
  7  8  4  0
  8  9  4  0
  9 10  4  0
 10 11  4  0
 11 12  4  0
 12 13  4  0
 13 14  4  0
 14 15  4  0
 15 16  4  0
 16 17  4  0
 17 18  4  0
 18 19  4  0
 19 20  4  0
 20 21  4  0
 21 22  1  0
 22 23  4  0
 23 24  4  0
 24 25  4  0
 25 26  4  0
 26 27  4  0
 27 28  4  0
 28 29  4  0
 29 30  4  0
 30 31  4  0
 21 32  4  0
 32 33  4  0
 33 34  4  0
 34 35  4  0
 35 36  4  0
 36 37  4  0
 37 38  4  0
  6 39  4  0
 39 40  4  0
 40 41  4  0
 41 42  4  0
 42  1  4  0
 40  3  4  0
 38  7  4  0
 38 11  4  0
 36 13  4  0
 34 15  4  0
 32 17  4  0
 31 22  4  0
 30 25  4  0
  1 43  1  0
  2 44  1  0
  4 45  1  0
  5 46  1  0
  8 47  1  0
  9 48  1  0
 10 49  1  0
 12 50  1  0
 14 51  1  0
 16 52  1  0
 18 53  1  0
 19 54  1  0
 20 55  1  0
 23 56  1  0
 24 57  1  0
 26 58  1  0
 27 59  1  0
 28 60  1  0
 29 61  1  0
 31 62  1  0
 33 63  1  0
 35 64  1  0
 37 65  1  0
 39 66  1  0
 41 67  1  0
 42 68  1  0
M  END
