
     RDKit          3D

 80 90  0  0  0  0  0  0  0  0999 V2000
    5.7433    6.6629   -0.2271 C   0  0  0  0  0  0  0  0  0  0  0  0
    5.4138    5.6810   -1.1628 C   0  0  0  0  0  0  0  0  0  0  0  0
    5.3780    4.3244   -0.7994 C   0  0  0  0  0  0  0  0  0  0  0  0
    5.0491    3.3249   -1.7301 C   0  0  0  0  0  0  0  0  0  0  0  0
    5.0149    1.9685   -1.3662 C   0  0  0  0  0  0  0  0  0  0  0  0
    4.6884    0.9701   -2.2964 C   0  0  0  0  0  0  0  0  0  0  0  0
    4.6614   -0.3752   -1.9208 C   0  0  0  0  0  0  0  0  0  0  0  0
    4.9553   -0.7550   -0.6057 C   0  0  0  0  0  0  0  0  0  0  0  0
    4.9305   -2.1723   -0.2098 C   0  0  0  0  0  0  0  0  0  0  0  0
    6.1447   -2.8831   -0.2175 C   0  0  0  0  0  0  0  0  0  0  0  0
    6.1902   -4.2265    0.1387 C   0  0  0  0  0  0  0  0  0  0  0  0
    5.0200   -4.8824    0.5088 C   0  0  0  0  0  0  0  0  0  0  0  0
    3.7902   -4.2072    0.5307 C   0  0  0  0  0  0  0  0  0  0  0  0
    2.6195   -4.8874    0.9079 C   0  0  0  0  0  0  0  0  0  0  0  0
    1.3718   -4.2454    0.9430 C   0  0  0  0  0  0  0  0  0  0  0  0
    0.2020   -4.9282    1.3182 C   0  0  0  0  0  0  0  0  0  0  0  0
   -1.0456   -4.2816    1.3504 C   0  0  0  0  0  0  0  0  0  0  0  0
   -2.2168   -4.9597    1.7225 C   0  0  0  0  0  0  0  0  0  0  0  0
   -3.4657   -4.3159    1.7534 C   0  0  0  0  0  0  0  0  0  0  0  0
   -4.6144   -5.0271    2.1322 C   0  0  0  0  0  0  0  0  0  0  0  0
   -5.8599   -4.4079    2.1695 C   0  0  0  0  0  0  0  0  0  0  0  0
   -5.9731   -3.0654    1.8256 C   0  0  0  0  0  0  0  0  0  0  0  0
   -4.8449   -2.3188    1.4390 C   0  0  0  0  0  0  0  0  0  0  0  0
   -5.0398   -0.9045    1.0809 C   0  0  0  0  0  0  0  0  0  0  0  0
   -5.1098    0.0808    2.0728 C   0  0  0  0  0  0  0  0  0  0  0  0
   -5.2947    1.4229    1.7315 C   0  0  0  0  0  0  0  0  0  0  0  0
   -5.4161    1.8120    0.3888 C   0  0  0  0  0  0  0  0  0  0  0  0
   -5.6009    3.1577    0.0303 C   0  0  0  0  0  0  0  0  0  0  0  0
   -5.7211    3.5470   -1.3141 C   0  0  0  0  0  0  0  0  0  0  0  0
   -5.9058    4.8922   -1.6746 C   0  0  0  0  0  0  0  0  0  0  0  0
   -6.0231    5.2631   -3.0151 C   0  0  0  0  0  0  0  0  0  0  0  0
   -5.9570    4.2947   -4.0120 C   0  0  0  0  0  0  0  0  0  0  0  0
   -5.7738    2.9539   -3.6699 C   0  0  0  0  0  0  0  0  0  0  0  0
   -5.6549    2.5648   -2.3255 C   0  0  0  0  0  0  0  0  0  0  0  0
   -5.4715    1.2192   -1.9662 C   0  0  0  0  0  0  0  0  0  0  0  0
   -5.3511    0.8303   -0.6217 C   0  0  0  0  0  0  0  0  0  0  0  0
   -5.1662   -0.5162   -0.2624 C   0  0  0  0  0  0  0  0  0  0  0  0
   -3.5659   -2.9481    1.4026 C   0  0  0  0  0  0  0  0  0  0  0  0
   -2.3740   -2.2783    1.0346 C   0  0  0  0  0  0  0  0  0  0  0  0
   -1.1249   -2.9231    1.0021 C   0  0  0  0  0  0  0  0  0  0  0  0
    0.0453   -2.2406    0.6285 C   0  0  0  0  0  0  0  0  0  0  0  0
    1.2927   -2.8869    0.5940 C   0  0  0  0  0  0  0  0  0  0  0  0
    2.4640   -2.2062    0.2176 C   0  0  0  0  0  0  0  0  0  0  0  0
    3.7295   -2.8390    0.1724 C   0  0  0  0  0  0  0  0  0  0  0  0
    5.2826    0.2434    0.3251 C   0  0  0  0  0  0  0  0  0  0  0  0
    5.3163    1.6014   -0.0381 C   0  0  0  0  0  0  0  0  0  0  0  0
    5.6445    2.6011    0.8931 C   0  0  0  0  0  0  0  0  0  0  0  0
    5.6796    3.9579    0.5297 C   0  0  0  0  0  0  0  0  0  0  0  0
    6.0090    4.9580    1.4598 C   0  0  0  0  0  0  0  0  0  0  0  0
    6.0407    6.3017    1.0832 C   0  0  0  0  0  0  0  0  0  0  0  0
    5.7675    7.7086   -0.5226 H   0  0  0  0  0  0  0  0  0  0  0  0
    5.1845    5.9831   -2.1822 H   0  0  0  0  0  0  0  0  0  0  0  0
    4.8170    3.6079   -2.7552 H   0  0  0  0  0  0  0  0  0  0  0  0
    4.4527    1.2314   -3.3257 H   0  0  0  0  0  0  0  0  0  0  0  0
    4.4078   -1.1306   -2.6622 H   0  0  0  0  0  0  0  0  0  0  0  0
    7.0659   -2.3811   -0.5091 H   0  0  0  0  0  0  0  0  0  0  0  0
    7.1359   -4.7617    0.1263 H   0  0  0  0  0  0  0  0  0  0  0  0
    5.0754   -5.9340    0.7831 H   0  0  0  0  0  0  0  0  0  0  0  0
    2.6799   -5.9400    1.1801 H   0  0  0  0  0  0  0  0  0  0  0  0
    0.2634   -5.9808    1.5886 H   0  0  0  0  0  0  0  0  0  0  0  0
   -2.1540   -6.0123    1.9937 H   0  0  0  0  0  0  0  0  0  0  0  0
   -4.5466   -6.0787    2.4038 H   0  0  0  0  0  0  0  0  0  0  0  0
   -6.7414   -4.9708    2.4641 H   0  0  0  0  0  0  0  0  0  0  0  0
   -6.9534   -2.5923    1.8541 H   0  0  0  0  0  0  0  0  0  0  0  0
   -5.0151   -0.1941    3.1215 H   0  0  0  0  0  0  0  0  0  0  0  0
   -5.3417    2.1640    2.5264 H   0  0  0  0  0  0  0  0  0  0  0  0
   -5.6517    3.9149    0.8104 H   0  0  0  0  0  0  0  0  0  0  0  0
   -5.9605    5.6641   -0.9101 H   0  0  0  0  0  0  0  0  0  0  0  0
   -6.1661    6.3078   -3.2793 H   0  0  0  0  0  0  0  0  0  0  0  0
   -6.0483    4.5814   -5.0564 H   0  0  0  0  0  0  0  0  0  0  0  0
   -5.7247    2.2114   -4.4633 H   0  0  0  0  0  0  0  0  0  0  0  0
   -5.4212    0.4619   -2.7466 H   0  0  0  0  0  0  0  0  0  0  0  0
   -5.1160   -1.2799   -1.0375 H   0  0  0  0  0  0  0  0  0  0  0  0
   -2.4159   -1.2236    0.7654 H   0  0  0  0  0  0  0  0  0  0  0  0
   -0.0166   -1.1875    0.3576 H   0  0  0  0  0  0  0  0  0  0  0  0
    2.3852   -1.1523   -0.0463 H   0  0  0  0  0  0  0  0  0  0  0  0
    5.5118   -0.0471    1.3494 H   0  0  0  0  0  0  0  0  0  0  0  0
    5.8774    2.3182    1.9181 H   0  0  0  0  0  0  0  0  0  0  0  0
    6.2447    4.6957    2.4888 H   0  0  0  0  0  0  0  0  0  0  0  0
    6.2978    7.0647    1.8134 H   0  0  0  0  0  0  0  0  0  0  0  0
  1  2  4  0
  2  3  4  0
  3  4  4  0
  4  5  4  0
  5  6  4  0
  6  7  4  0
  7  8  4  0
  8  9  1  0
  9 10  4  0
 10 11  4  0
 11 12  4  0
 12 13  4  0
 13 14  4  0
 14 15  4  0
 15 16  4  0
 16 17  4  0
 17 18  4  0
 18 19  4  0
 19 20  4  0
 20 21  4  0
 21 22  4  0
 22 23  4  0
 23 24  1  0
 24 25  4  0
 25 26  4  0
 26 27  4  0
 27 28  4  0
 28 29  4  0
 29 30  4  0
 30 31  4  0
 31 32  4  0
 32 33  4  0
 33 34  4  0
 34 35  4  0
 35 36  4  0
 36 37  4  0
 23 38  4  0
 38 39  4  0
 39 40  4  0
 40 41  4  0
 41 42  4  0
 42 43  4  0
 43 44  4  0
  8 45  4  0
 45 46  4  0
 46 47  4  0
 47 48  4  0
 48 49  4  0
 49 50  4  0
 50  1  4  0
 48  3  4  0
 46  5  4  0
 44  9  4  0
 44 13  4  0
 42 15  4  0
 40 17  4  0
 38 19  4  0
 37 24  4  0
 36 27  4  0
 34 29  4  0
  1 51  1  0
  2 52  1  0
  4 53  1  0
  6 54  1  0
  7 55  1  0
 10 56  1  0
 11 57  1  0
 12 58  1  0
 14 59  1  0
 16 60  1  0
 18 61  1  0
 20 62  1  0
 21 63  1  0
 22 64  1  0
 25 65  1  0
 26 66  1  0
 28 67  1  0
 30 68  1  0
 31 69  1  0
 32 70  1  0
 33 71  1  0
 35 72  1  0
 37 73  1  0
 39 74  1  0
 41 75  1  0
 43 76  1  0
 45 77  1  0
 47 78  1  0
 49 79  1  0
 50 80  1  0
M  END
