
     RDKit          3D

 80 90  0  0  0  0  0  0  0  0999 V2000
   -6.0079   -4.4091    4.2946 C   0  0  0  0  0  0  0  0  0  0  0  0
   -6.2659   -4.9068    3.0212 C   0  0  0  0  0  0  0  0  0  0  0  0
   -6.1601   -4.0681    1.9106 C   0  0  0  0  0  0  0  0  0  0  0  0
   -5.7946   -2.7201    2.0603 C   0  0  0  0  0  0  0  0  0  0  0  0
   -5.6844   -1.8641    0.9523 C   0  0  0  0  0  0  0  0  0  0  0  0
   -5.3183   -0.5164    1.1023 C   0  0  0  0  0  0  0  0  0  0  0  0
   -5.2062    0.3392   -0.0070 C   0  0  0  0  0  0  0  0  0  0  0  0
   -4.8345    1.6845    0.1422 C   0  0  0  0  0  0  0  0  0  0  0  0
   -4.7129    2.5626   -1.0317 C   0  0  0  0  0  0  0  0  0  0  0  0
   -5.8429    3.2999   -1.4296 C   0  0  0  0  0  0  0  0  0  0  0  0
   -5.7929    4.1450   -2.5327 C   0  0  0  0  0  0  0  0  0  0  0  0
   -4.6105    4.2663   -3.2567 C   0  0  0  0  0  0  0  0  0  0  0  0
   -3.4626    3.5474   -2.8902 C   0  0  0  0  0  0  0  0  0  0  0  0
   -2.2775    3.6833   -3.6333 C   0  0  0  0  0  0  0  0  0  0  0  0
   -1.1100    2.9813   -3.2955 C   0  0  0  0  0  0  0  0  0  0  0  0
    0.0744    3.1196   -4.0393 C   0  0  0  0  0  0  0  0  0  0  0  0
    1.2419    2.4164   -3.6958 C   0  0  0  0  0  0  0  0  0  0  0  0
    2.4273    2.5525   -4.4347 C   0  0  0  0  0  0  0  0  0  0  0  0
    3.5962    1.8516   -4.0916 C   0  0  0  0  0  0  0  0  0  0  0  0
    4.7630    2.0125   -4.8540 C   0  0  0  0  0  0  0  0  0  0  0  0
    5.9299    1.3272   -4.5300 C   0  0  0  0  0  0  0  0  0  0  0  0
    5.9451    0.4698   -3.4353 C   0  0  0  0  0  0  0  0  0  0  0  0
    4.7957    0.2827   -2.6462 C   0  0  0  0  0  0  0  0  0  0  0  0
    4.8835   -0.6360   -1.5002 C   0  0  0  0  0  0  0  0  0  0  0  0
    5.1741   -0.1519   -0.2150 C   0  0  0  0  0  0  0  0  0  0  0  0
    5.2601   -1.0156    0.8908 C   0  0  0  0  0  0  0  0  0  0  0  0
    5.5472   -0.5310    2.1777 C   0  0  0  0  0  0  0  0  0  0  0  0
    5.6317   -1.3939    3.2829 C   0  0  0  0  0  0  0  0  0  0  0  0
    5.9180   -0.9096    4.5701 C   0  0  0  0  0  0  0  0  0  0  0  0
    5.9987   -1.7793    5.6587 C   0  0  0  0  0  0  0  0  0  0  0  0
    5.7948   -3.1433    5.4747 C   0  0  0  0  0  0  0  0  0  0  0  0
    5.5097   -3.6398    4.2018 C   0  0  0  0  0  0  0  0  0  0  0  0
    5.4246   -2.7774    3.0962 C   0  0  0  0  0  0  0  0  0  0  0  0
    5.1380   -3.2619    1.8092 C   0  0  0  0  0  0  0  0  0  0  0  0
    5.0529   -2.3983    0.7046 C   0  0  0  0  0  0  0  0  0  0  0  0
    4.7655   -2.8820   -0.5808 C   0  0  0  0  0  0  0  0  0  0  0  0
    4.6827   -2.0109   -1.6699 C   0  0  0  0  0  0  0  0  0  0  0  0
    3.5974    0.9814   -2.9750 C   0  0  0  0  0  0  0  0  0  0  0  0
    2.3928    0.8538   -2.2428 C   0  0  0  0  0  0  0  0  0  0  0  0
    1.2241    1.5558   -2.5855 C   0  0  0  0  0  0  0  0  0  0  0  0
    0.0393    1.4169   -1.8432 C   0  0  0  0  0  0  0  0  0  0  0  0
   -1.1277    2.1205   -2.1855 C   0  0  0  0  0  0  0  0  0  0  0  0
   -2.3132    1.9838   -1.4426 C   0  0  0  0  0  0  0  0  0  0  0  0
   -3.4992    2.6840   -1.7694 C   0  0  0  0  0  0  0  0  0  0  0  0
   -4.5795    2.1720    1.4292 C   0  0  0  0  0  0  0  0  0  0  0  0
   -4.6879    1.3341    2.5417 C   0  0  0  0  0  0  0  0  0  0  0  0
   -5.0556   -0.0118    2.3930 C   0  0  0  0  0  0  0  0  0  0  0  0
   -5.1665   -0.8671    3.5016 C   0  0  0  0  0  0  0  0  0  0  0  0
   -5.5326   -2.2151    3.3520 C   0  0  0  0  0  0  0  0  0  0  0  0
   -5.6436   -3.0718    4.4596 C   0  0  0  0  0  0  0  0  0  0  0  0
   -6.0900   -5.0604    5.1608 H   0  0  0  0  0  0  0  0  0  0  0  0
   -6.5498   -5.9477    2.8905 H   0  0  0  0  0  0  0  0  0  0  0  0
   -6.3665   -4.4753    0.9233 H   0  0  0  0  0  0  0  0  0  0  0  0
   -5.8858   -2.2536   -0.0441 H   0  0  0  0  0  0  0  0  0  0  0  0
   -5.4042   -0.0437   -1.0073 H   0  0  0  0  0  0  0  0  0  0  0  0
   -6.7733    3.2117   -0.8710 H   0  0  0  0  0  0  0  0  0  0  0  0
   -6.6739    4.7082   -2.8285 H   0  0  0  0  0  0  0  0  0  0  0  0
   -4.5911    4.9324   -4.1170 H   0  0  0  0  0  0  0  0  0  0  0  0
   -2.2622    4.3508   -4.4933 H   0  0  0  0  0  0  0  0  0  0  0  0
    0.0882    3.7865   -4.8995 H   0  0  0  0  0  0  0  0  0  0  0  0
    2.4400    3.2191   -5.2957 H   0  0  0  0  0  0  0  0  0  0  0  0
    4.7715    2.6792   -5.7141 H   0  0  0  0  0  0  0  0  0  0  0  0
    6.8267    1.4617   -5.1287 H   0  0  0  0  0  0  0  0  0  0  0  0
    6.8644   -0.0595   -3.1897 H   0  0  0  0  0  0  0  0  0  0  0  0
    5.3316    0.9173   -0.0792 H   0  0  0  0  0  0  0  0  0  0  0  0
    5.7072    0.5360    2.3219 H   0  0  0  0  0  0  0  0  0  0  0  0
    6.0805    0.1534    4.7337 H   0  0  0  0  0  0  0  0  0  0  0  0
    6.2208   -1.3905    6.6490 H   0  0  0  0  0  0  0  0  0  0  0  0
    5.8574   -3.8223    6.3210 H   0  0  0  0  0  0  0  0  0  0  0  0
    5.3541   -4.7093    4.0784 H   0  0  0  0  0  0  0  0  0  0  0  0
    4.9790   -4.3290    1.6653 H   0  0  0  0  0  0  0  0  0  0  0  0
    4.6017   -3.9446   -0.7461 H   0  0  0  0  0  0  0  0  0  0  0  0
    4.4535   -2.4103   -2.6559 H   0  0  0  0  0  0  0  0  0  0  0  0
    2.3610    0.1894   -1.3800 H   0  0  0  0  0  0  0  0  0  0  0  0
    0.0255    0.7498   -0.9825 H   0  0  0  0  0  0  0  0  0  0  0  0
   -2.3090    1.3126   -0.5847 H   0  0  0  0  0  0  0  0  0  0  0  0
   -4.2878    3.2109    1.5702 H   0  0  0  0  0  0  0  0  0  0  0  0
   -4.4790    1.7430    3.5278 H   0  0  0  0  0  0  0  0  0  0  0  0
   -4.9651   -0.4777    4.4979 H   0  0  0  0  0  0  0  0  0  0  0  0
   -5.4469   -2.7015    5.4633 H   0  0  0  0  0  0  0  0  0  0  0  0
  1  2  4  0
  2  3  4  0
  3  4  4  0
  4  5  4  0
  5  6  4  0
  6  7  4  0
  7  8  4  0
  8  9  1  0
  9 10  4  0
 10 11  4  0
 11 12  4  0
 12 13  4  0
 13 14  4  0
 14 15  4  0
 15 16  4  0
 16 17  4  0
 17 18  4  0
 18 19  4  0
 19 20  4  0
 20 21  4  0
 21 22  4  0
 22 23  4  0
 23 24  1  0
 24 25  4  0
 25 26  4  0
 26 27  4  0
 27 28  4  0
 28 29  4  0
 29 30  4  0
 30 31  4  0
 31 32  4  0
 32 33  4  0
 33 34  4  0
 34 35  4  0
 35 36  4  0
 36 37  4  0
 23 38  4  0
 38 39  4  0
 39 40  4  0
 40 41  4  0
 41 42  4  0
 42 43  4  0
 43 44  4  0
  8 45  4  0
 45 46  4  0
 46 47  4  0
 47 48  4  0
 48 49  4  0
 49 50  4  0
 50  1  4  0
 49  4  4  0
 47  6  4  0
 44  9  4  0
 44 13  4  0
 42 15  4  0
 40 17  4  0
 38 19  4  0
 37 24  4  0
 35 26  4  0
 33 28  4  0
  1 51  1  0
  2 52  1  0
  3 53  1  0
  5 54  1  0
  7 55  1  0
 10 56  1  0
 11 57  1  0
 12 58  1  0
 14 59  1  0
 16 60  1  0
 18 61  1  0
 20 62  1  0
 21 63  1  0
 22 64  1  0
 25 65  1  0
 27 66  1  0
 29 67  1  0
 30 68  1  0
 31 69  1  0
 32 70  1  0
 34 71  1  0
 36 72  1  0
 37 73  1  0
 39 74  1  0
 41 75  1  0
 43 76  1  0
 45 77  1  0
 46 78  1  0
 48 79  1  0
 50 80  1  0
M  END
