
     RDKit          3D

100114  0  0  0  0  0  0  0  0999 V2000
    3.5407    5.5353    3.5181 C   0  0  0  0  0  0  0  0  0  0  0  0
    3.4013    4.4769    4.4042 C   0  0  0  0  0  0  0  0  0  0  0  0
    3.7682    3.1882    4.0105 C   0  0  0  0  0  0  0  0  0  0  0  0
    4.2879    2.9200    2.7202 C   0  0  0  0  0  0  0  0  0  0  0  0
    4.4133    4.0091    1.8325 C   0  0  0  0  0  0  0  0  0  0  0  0
    4.0423    5.3022    2.2395 C   0  0  0  0  0  0  0  0  0  0  0  0
    4.8996    3.7909    0.5394 C   0  0  0  0  0  0  0  0  0  0  0  0
    5.2704    2.5345    0.0929 C   0  0  0  0  0  0  0  0  0  0  0  0
    5.7037    2.4124   -1.1755 N   0  0  0  0  0  0  0  0  0  0  0  0
    6.0531    1.1870   -1.6034 C   0  0  0  0  0  0  0  0  0  0  0  0
    6.4929    1.0100   -2.9096 C   0  0  0  0  0  0  0  0  0  0  0  0
    6.8580   -0.2527   -3.4011 C   0  0  0  0  0  0  0  0  0  0  0  0
    7.2952   -0.4323   -4.7237 C   0  0  0  0  0  0  0  0  0  0  0  0
    7.6498   -1.6990   -5.1900 C   0  0  0  0  0  0  0  0  0  0  0  0
    7.5735   -2.7995   -4.3412 C   0  0  0  0  0  0  0  0  0  0  0  0
    7.1413   -2.6355   -3.0245 C   0  0  0  0  0  0  0  0  0  0  0  0
    6.7797   -1.3670   -2.5425 C   0  0  0  0  0  0  0  0  0  0  0  0
    6.3382   -1.1784   -1.2245 C   0  0  0  0  0  0  0  0  0  0  0  0
    5.9752    0.0745   -0.7485 C   0  0  0  0  0  0  0  0  0  0  0  0
    5.5480    0.2046    0.5183 N   0  0  0  0  0  0  0  0  0  0  0  0
    5.1761    1.4290    0.9611 C   0  0  0  0  0  0  0  0  0  0  0  0
    4.6767    1.6210    2.2695 C   0  0  0  0  0  0  0  0  0  0  0  0
    4.5311    0.4371    3.1575 C   0  0  0  0  0  0  0  0  0  0  0  0
    5.5523    0.1614    4.0856 C   0  0  0  0  0  0  0  0  0  0  0  0
    5.4706   -0.9409    4.9300 C   0  0  0  0  0  0  0  0  0  0  0  0
    4.3722   -1.7933    4.8521 C   0  0  0  0  0  0  0  0  0  0  0  0
    3.3381   -1.5576    3.9332 C   0  0  0  0  0  0  0  0  0  0  0  0
    2.2482   -2.4431    3.8471 C   0  0  0  0  0  0  0  0  0  0  0  0
    1.2078   -2.2460    2.9240 C   0  0  0  0  0  0  0  0  0  0  0  0
    0.1393   -3.1521    2.8017 C   0  0  0  0  0  0  0  0  0  0  0  0
   -0.8802   -2.9587    1.8518 C   0  0  0  0  0  0  0  0  0  0  0  0
   -1.9262   -3.8802    1.6912 C   0  0  0  0  0  0  0  0  0  0  0  0
   -2.9279   -3.6997    0.7211 C   0  0  0  0  0  0  0  0  0  0  0  0
   -3.9419   -4.6575    0.5735 C   0  0  0  0  0  0  0  0  0  0  0  0
   -4.9355   -4.5058   -0.3884 C   0  0  0  0  0  0  0  0  0  0  0  0
   -4.9279   -3.3905   -1.2185 C   0  0  0  0  0  0  0  0  0  0  0  0
   -3.9298   -2.4034   -1.1010 C   0  0  0  0  0  0  0  0  0  0  0  0
   -3.9854   -1.2371   -2.0249 C   0  0  0  0  0  0  0  0  0  0  0  0
   -4.9178   -0.2081   -1.7588 C   0  0  0  0  0  0  0  0  0  0  0  0
   -5.7433   -0.2576   -0.6856 N   0  0  0  0  0  0  0  0  0  0  0  0
   -6.6065    0.7518   -0.4824 C   0  0  0  0  0  0  0  0  0  0  0  0
   -7.4572    0.7182    0.6147 C   0  0  0  0  0  0  0  0  0  0  0  0
   -8.3766    1.7473    0.8674 C   0  0  0  0  0  0  0  0  0  0  0  0
   -9.2366    1.7124    1.9771 C   0  0  0  0  0  0  0  0  0  0  0  0
  -10.1435    2.7479    2.2073 C   0  0  0  0  0  0  0  0  0  0  0  0
  -10.2016    3.8290    1.3327 C   0  0  0  0  0  0  0  0  0  0  0  0
   -9.3524    3.8768    0.2262 C   0  0  0  0  0  0  0  0  0  0  0  0
   -8.4349    2.8417   -0.0178 C   0  0  0  0  0  0  0  0  0  0  0  0
   -7.5706    2.8673   -1.1229 C   0  0  0  0  0  0  0  0  0  0  0  0
   -6.6629    1.8437   -1.3651 C   0  0  0  0  0  0  0  0  0  0  0  0
   -5.8533    1.9090   -2.4356 N   0  0  0  0  0  0  0  0  0  0  0  0
   -4.9891    0.8964   -2.6310 C   0  0  0  0  0  0  0  0  0  0  0  0
   -4.1504    0.9609   -3.7291 C   0  0  0  0  0  0  0  0  0  0  0  0
   -3.2167   -0.0398   -4.0130 C   0  0  0  0  0  0  0  0  0  0  0  0
   -2.3808    0.0769   -5.1369 C   0  0  0  0  0  0  0  0  0  0  0  0
   -1.4337   -0.9013   -5.4300 C   0  0  0  0  0  0  0  0  0  0  0  0
   -1.3188   -2.0130   -4.6083 C   0  0  0  0  0  0  0  0  0  0  0  0
   -2.1549   -2.1451   -3.4970 C   0  0  0  0  0  0  0  0  0  0  0  0
   -3.1198   -1.1617   -3.1628 C   0  0  0  0  0  0  0  0  0  0  0  0
   -2.9110   -2.5550   -0.1126 C   0  0  0  0  0  0  0  0  0  0  0  0
   -1.8632   -1.6243    0.0802 C   0  0  0  0  0  0  0  0  0  0  0  0
   -0.8470   -1.8200    1.0304 C   0  0  0  0  0  0  0  0  0  0  0  0
    0.2111   -0.9083    1.1631 C   0  0  0  0  0  0  0  0  0  0  0  0
    1.2454   -1.1179    2.0886 C   0  0  0  0  0  0  0  0  0  0  0  0
    2.3273   -0.2286    2.1823 C   0  0  0  0  0  0  0  0  0  0  0  0
    3.4005   -0.4298    3.0809 C   0  0  0  0  0  0  0  0  0  0  0  0
    3.2564    6.5405    3.8181 H   0  0  0  0  0  0  0  0  0  0  0  0
    3.0058    4.6472    5.4024 H   0  0  0  0  0  0  0  0  0  0  0  0
    3.6379    2.3837    4.7328 H   0  0  0  0  0  0  0  0  0  0  0  0
    4.1387    6.1443    1.5565 H   0  0  0  0  0  0  0  0  0  0  0  0
    4.9901    4.6239   -0.1560 H   0  0  0  0  0  0  0  0  0  0  0  0
    6.5462    1.8837   -3.5556 H   0  0  0  0  0  0  0  0  0  0  0  0
    7.3623    0.4154   -5.4026 H   0  0  0  0  0  0  0  0  0  0  0  0
    7.9862   -1.8256   -6.2160 H   0  0  0  0  0  0  0  0  0  0  0  0
    7.8506   -3.7864   -4.7033 H   0  0  0  0  0  0  0  0  0  0  0  0
    7.0871   -3.5072   -2.3752 H   0  0  0  0  0  0  0  0  0  0  0  0
    6.2642   -2.0245   -0.5442 H   0  0  0  0  0  0  0  0  0  0  0  0
    6.4241    0.8103    4.1438 H   0  0  0  0  0  0  0  0  0  0  0  0
    6.2684   -1.1431    5.6395 H   0  0  0  0  0  0  0  0  0  0  0  0
    4.3341   -2.6566    5.5133 H   0  0  0  0  0  0  0  0  0  0  0  0
    2.2166   -3.3137    4.5000 H   0  0  0  0  0  0  0  0  0  0  0  0
    0.1108   -4.0316    3.4423 H   0  0  0  0  0  0  0  0  0  0  0  0
   -1.9519   -4.7648    2.3248 H   0  0  0  0  0  0  0  0  0  0  0  0
   -3.9659   -5.5373    1.2131 H   0  0  0  0  0  0  0  0  0  0  0  0
   -5.7178   -5.2532   -0.4887 H   0  0  0  0  0  0  0  0  0  0  0  0
   -5.7159   -3.2805   -1.9615 H   0  0  0  0  0  0  0  0  0  0  0  0
   -7.3936   -0.1366    1.2850 H   0  0  0  0  0  0  0  0  0  0  0  0
   -9.2056    0.8758    2.6722 H   0  0  0  0  0  0  0  0  0  0  0  0
  -10.8039    2.7096    3.0700 H   0  0  0  0  0  0  0  0  0  0  0  0
  -10.9075    4.6362    1.5112 H   0  0  0  0  0  0  0  0  0  0  0  0
   -9.4122    4.7304   -0.4460 H   0  0  0  0  0  0  0  0  0  0  0  0
   -7.5982    3.7030   -1.8187 H   0  0  0  0  0  0  0  0  0  0  0  0
   -4.2335    1.8293   -4.3807 H   0  0  0  0  0  0  0  0  0  0  0  0
   -2.4582    0.9411   -5.7945 H   0  0  0  0  0  0  0  0  0  0  0  0
   -0.7872   -0.7939   -6.2970 H   0  0  0  0  0  0  0  0  0  0  0  0
   -0.5803   -2.7805   -4.8264 H   0  0  0  0  0  0  0  0  0  0  0  0
   -2.0361   -3.0352   -2.8811 H   0  0  0  0  0  0  0  0  0  0  0  0
   -1.8245   -0.7262   -0.5341 H   0  0  0  0  0  0  0  0  0  0  0  0
    0.2421   -0.0309    0.5190 H   0  0  0  0  0  0  0  0  0  0  0  0
    2.3394    0.6332    1.5179 H   0  0  0  0  0  0  0  0  0  0  0  0
  1  2  4  0
  2  3  4  0
  3  4  4  0
  4  5  4  0
  5  6  4  0
  5  7  4  0
  7  8  4  0
  8  9  4  0
  9 10  4  0
 10 11  4  0
 11 12  4  0
 12 13  4  0
 13 14  4  0
 14 15  4  0
 15 16  4  0
 16 17  4  0
 17 18  4  0
 18 19  4  0
 19 20  4  0
 20 21  4  0
 21 22  4  0
 22 23  1  0
 23 24  4  0
 24 25  4  0
 25 26  4  0
 26 27  4  0
 27 28  4  0
 28 29  4  0
 29 30  4  0
 30 31  4  0
 31 32  4  0
 32 33  4  0
 33 34  4  0
 34 35  4  0
 35 36  4  0
 36 37  4  0
 37 38  1  0
 38 39  4  0
 39 40  4  0
 40 41  4  0
 41 42  4  0
 42 43  4  0
 43 44  4  0
 44 45  4  0
 45 46  4  0
 46 47  4  0
 47 48  4  0
 48 49  4  0
 49 50  4  0
 50 51  4  0
 51 52  4  0
 52 53  4  0
 53 54  4  0
 54 55  4  0
 55 56  4  0
 56 57  4  0
 57 58  4  0
 58 59  4  0
 37 60  4  0
 60 61  4  0
 61 62  4  0
 62 63  4  0
 63 64  4  0
 64 65  4  0
 65 66  4  0
  6  1  4  0
 21  8  4  0
 66 23  4  0
 22  4  4  0
 66 27  4  0
 19 10  4  0
 64 29  4  0
 17 12  4  0
 62 31  4  0
 60 33  4  0
 59 38  4  0
 52 39  4  0
 59 54  4  0
 50 41  4  0
 48 43  4  0
  1 67  1  0
  2 68  1  0
  3 69  1  0
  6 70  1  0
  7 71  1  0
 11 72  1  0
 13 73  1  0
 14 74  1  0
 15 75  1  0
 16 76  1  0
 18 77  1  0
 24 78  1  0
 25 79  1  0
 26 80  1  0
 28 81  1  0
 30 82  1  0
 32 83  1  0
 34 84  1  0
 35 85  1  0
 36 86  1  0
 42 87  1  0
 44 88  1  0
 45 89  1  0
 46 90  1  0
 47 91  1  0
 49 92  1  0
 53 93  1  0
 55 94  1  0
 56 95  1  0
 57 96  1  0
 58 97  1  0
 61 98  1  0
 63 99  1  0
 65100  1  0
M  END
