
     RDKit          3D

100114  0  0  0  0  0  0  0  0999 V2000
   -3.1335   -5.5904    5.2400 C   0  0  0  0  0  0  0  0  0  0  0  0
   -3.0497   -6.2075    3.9953 C   0  0  0  0  0  0  0  0  0  0  0  0
   -3.2395   -5.4598    2.8324 C   0  0  0  0  0  0  0  0  0  0  0  0
   -3.5157   -4.0844    2.9019 C   0  0  0  0  0  0  0  0  0  0  0  0
   -3.7104   -3.3124    1.7466 C   0  0  0  0  0  0  0  0  0  0  0  0
   -3.9845   -1.9525    1.8129 C   0  0  0  0  0  0  0  0  0  0  0  0
   -4.1645   -1.2560    0.6765 N   0  0  0  0  0  0  0  0  0  0  0  0
   -4.4245    0.0597    0.7861 C   0  0  0  0  0  0  0  0  0  0  0  0
   -4.6080    0.8235   -0.3596 C   0  0  0  0  0  0  0  0  0  0  0  0
   -4.8683    2.2131   -0.3213 C   0  0  0  0  0  0  0  0  0  0  0  0
   -4.9629    2.8193    0.9513 C   0  0  0  0  0  0  0  0  0  0  0  0
   -4.7822    2.0421    2.1058 C   0  0  0  0  0  0  0  0  0  0  0  0
   -4.5095    0.6832    2.0435 C   0  0  0  0  0  0  0  0  0  0  0  0
   -4.3311   -0.0114    3.1818 N   0  0  0  0  0  0  0  0  0  0  0  0
   -4.0687   -1.3268    3.0732 C   0  0  0  0  0  0  0  0  0  0  0  0
   -3.8767   -2.0851    4.2211 C   0  0  0  0  0  0  0  0  0  0  0  0
   -3.6006   -3.4597    4.1618 C   0  0  0  0  0  0  0  0  0  0  0  0
   -3.4072   -4.2244    5.3239 C   0  0  0  0  0  0  0  0  0  0  0  0
   -5.2310    4.1923    1.0563 C   0  0  0  0  0  0  0  0  0  0  0  0
   -5.4004    4.9757   -0.0813 C   0  0  0  0  0  0  0  0  0  0  0  0
   -5.2981    4.3949   -1.3409 C   0  0  0  0  0  0  0  0  0  0  0  0
   -5.0298    3.0210   -1.4855 C   0  0  0  0  0  0  0  0  0  0  0  0
   -4.9160    2.4706   -2.8542 C   0  0  0  0  0  0  0  0  0  0  0  0
   -6.1017    2.2119   -3.5667 C   0  0  0  0  0  0  0  0  0  0  0  0
   -6.0626    1.6850   -4.8528 C   0  0  0  0  0  0  0  0  0  0  0  0
   -4.8360    1.4053   -5.4479 C   0  0  0  0  0  0  0  0  0  0  0  0
   -3.6320    1.6495   -4.7704 C   0  0  0  0  0  0  0  0  0  0  0  0
   -2.4037    1.3508   -5.3850 C   0  0  0  0  0  0  0  0  0  0  0  0
   -1.1800    1.5724   -4.7340 C   0  0  0  0  0  0  0  0  0  0  0  0
    0.0476    1.2609   -5.3435 C   0  0  0  0  0  0  0  0  0  0  0  0
    1.2700    1.4804   -4.6855 C   0  0  0  0  0  0  0  0  0  0  0  0
    2.4986    1.1665   -5.2879 C   0  0  0  0  0  0  0  0  0  0  0  0
    3.7209    1.3778   -4.6267 C   0  0  0  0  0  0  0  0  0  0  0  0
    4.9300    1.0451   -5.2560 C   0  0  0  0  0  0  0  0  0  0  0  0
    6.1496    1.2418   -4.6149 C   0  0  0  0  0  0  0  0  0  0  0  0
    6.1765    1.7746   -3.3309 C   0  0  0  0  0  0  0  0  0  0  0  0
    4.9852    2.1193   -2.6663 C   0  0  0  0  0  0  0  0  0  0  0  0
    5.0834    2.6732   -1.2987 C   0  0  0  0  0  0  0  0  0  0  0  0
    5.3704    4.0431   -1.1546 C   0  0  0  0  0  0  0  0  0  0  0  0
    5.4618    4.6261    0.1047 C   0  0  0  0  0  0  0  0  0  0  0  0
    5.2644    3.8484    1.2418 C   0  0  0  0  0  0  0  0  0  0  0  0
    4.9772    2.4793    1.1366 C   0  0  0  0  0  0  0  0  0  0  0  0
    4.7723    1.7071    2.2904 C   0  0  0  0  0  0  0  0  0  0  0  0
    4.4813    0.3522    2.2276 C   0  0  0  0  0  0  0  0  0  0  0  0
    4.2856   -0.3384    3.3655 N   0  0  0  0  0  0  0  0  0  0  0  0
    4.0046   -1.6496    3.2555 C   0  0  0  0  0  0  0  0  0  0  0  0
    3.7942   -2.4032    4.4030 C   0  0  0  0  0  0  0  0  0  0  0  0
    3.4999   -3.7739    4.3440 C   0  0  0  0  0  0  0  0  0  0  0  0
    3.2876   -4.5338    5.5060 C   0  0  0  0  0  0  0  0  0  0  0  0
    2.9963   -5.8961    5.4222 C   0  0  0  0  0  0  0  0  0  0  0  0
    2.9140   -6.5143    4.1780 C   0  0  0  0  0  0  0  0  0  0  0  0
    3.1228   -5.7714    3.0153 C   0  0  0  0  0  0  0  0  0  0  0  0
    3.4165   -4.3997    3.0846 C   0  0  0  0  0  0  0  0  0  0  0  0
    3.6301   -3.6325    1.9295 C   0  0  0  0  0  0  0  0  0  0  0  0
    3.9211   -2.2761    1.9956 C   0  0  0  0  0  0  0  0  0  0  0  0
    4.1182   -1.5834    0.8597 N   0  0  0  0  0  0  0  0  0  0  0  0
    4.3960   -0.2713    0.9697 C   0  0  0  0  0  0  0  0  0  0  0  0
    4.6019    0.4877   -0.1754 C   0  0  0  0  0  0  0  0  0  0  0  0
    4.8888    1.8718   -0.1357 C   0  0  0  0  0  0  0  0  0  0  0  0
    3.7332    1.9240   -3.3213 C   0  0  0  0  0  0  0  0  0  0  0  0
    2.4861    2.2429   -2.7329 C   0  0  0  0  0  0  0  0  0  0  0  0
    1.2637    2.0247   -3.3906 C   0  0  0  0  0  0  0  0  0  0  0  0
    0.0368    2.3350   -2.7805 C   0  0  0  0  0  0  0  0  0  0  0  0
   -1.1844    2.1162   -3.4391 C   0  0  0  0  0  0  0  0  0  0  0  0
   -2.4118    2.4245   -2.8289 C   0  0  0  0  0  0  0  0  0  0  0  0
   -3.6559    2.1930   -3.4638 C   0  0  0  0  0  0  0  0  0  0  0  0
   -2.9857   -6.1715    6.1467 H   0  0  0  0  0  0  0  0  0  0  0  0
   -2.8364   -7.2714    3.9284 H   0  0  0  0  0  0  0  0  0  0  0  0
   -3.1701   -5.9594    1.8683 H   0  0  0  0  0  0  0  0  0  0  0  0
   -3.6480   -3.7740    0.7633 H   0  0  0  0  0  0  0  0  0  0  0  0
   -4.5355    0.3056   -1.3147 H   0  0  0  0  0  0  0  0  0  0  0  0
   -4.8484    2.5017    3.0902 H   0  0  0  0  0  0  0  0  0  0  0  0
   -3.9460   -1.5833    5.1838 H   0  0  0  0  0  0  0  0  0  0  0  0
   -3.4686   -3.7599    6.3060 H   0  0  0  0  0  0  0  0  0  0  0  0
   -5.3100    4.6660    2.0334 H   0  0  0  0  0  0  0  0  0  0  0  0
   -5.6072    6.0387    0.0133 H   0  0  0  0  0  0  0  0  0  0  0  0
   -5.4210    5.0202   -2.2240 H   0  0  0  0  0  0  0  0  0  0  0  0
   -7.0678    2.4173   -3.1084 H   0  0  0  0  0  0  0  0  0  0  0  0
   -6.9869    1.4873   -5.3893 H   0  0  0  0  0  0  0  0  0  0  0  0
   -4.8270    0.9875   -6.4526 H   0  0  0  0  0  0  0  0  0  0  0  0
   -2.3995    0.9304   -6.3895 H   0  0  0  0  0  0  0  0  0  0  0  0
    0.0510    0.8381   -6.3463 H   0  0  0  0  0  0  0  0  0  0  0  0
    2.5026    0.7438   -6.2913 H   0  0  0  0  0  0  0  0  0  0  0  0
    4.9305    0.6236   -6.2592 H   0  0  0  0  0  0  0  0  0  0  0  0
    7.0776    0.9764   -5.1144 H   0  0  0  0  0  0  0  0  0  0  0  0
    7.1361    1.9178   -2.8369 H   0  0  0  0  0  0  0  0  0  0  0  0
    5.5159    4.6632   -2.0379 H   0  0  0  0  0  0  0  0  0  0  0  0
    5.6821    5.6863    0.1996 H   0  0  0  0  0  0  0  0  0  0  0  0
    5.3354    4.3233    2.2187 H   0  0  0  0  0  0  0  0  0  0  0  0
    4.8358    2.1675    3.2746 H   0  0  0  0  0  0  0  0  0  0  0  0
    3.8636   -1.9006    5.3652 H   0  0  0  0  0  0  0  0  0  0  0  0
    3.3478   -4.0684    6.4877 H   0  0  0  0  0  0  0  0  0  0  0  0
    2.8340   -6.4736    6.3288 H   0  0  0  0  0  0  0  0  0  0  0  0
    2.6873   -7.5753    4.1112 H   0  0  0  0  0  0  0  0  0  0  0  0
    3.0544   -6.2716    2.0513 H   0  0  0  0  0  0  0  0  0  0  0  0
    3.5700   -4.0957    0.9469 H   0  0  0  0  0  0  0  0  0  0  0  0
    4.5283   -0.0293   -1.1308 H   0  0  0  0  0  0  0  0  0  0  0  0
    2.4609    2.6683   -1.7308 H   0  0  0  0  0  0  0  0  0  0  0  0
    0.0323    2.7483   -1.7728 H   0  0  0  0  0  0  0  0  0  0  0  0
   -2.3934    2.8506   -1.8269 H   0  0  0  0  0  0  0  0  0  0  0  0
  1  2  4  0
  2  3  4  0
  3  4  4  0
  4  5  4  0
  5  6  4  0
  6  7  4  0
  7  8  4  0
  8  9  4  0
  9 10  4  0
 10 11  4  0
 11 12  4  0
 12 13  4  0
 13 14  4  0
 14 15  4  0
 15 16  4  0
 16 17  4  0
 17 18  4  0
 11 19  4  0
 19 20  4  0
 20 21  4  0
 21 22  4  0
 22 23  1  0
 23 24  4  0
 24 25  4  0
 25 26  4  0
 26 27  4  0
 27 28  4  0
 28 29  4  0
 29 30  4  0
 30 31  4  0
 31 32  4  0
 32 33  4  0
 33 34  4  0
 34 35  4  0
 35 36  4  0
 36 37  4  0
 37 38  1  0
 38 39  4  0
 39 40  4  0
 40 41  4  0
 41 42  4  0
 42 43  4  0
 43 44  4  0
 44 45  4  0
 45 46  4  0
 46 47  4  0
 47 48  4  0
 48 49  4  0
 49 50  4  0
 50 51  4  0
 51 52  4  0
 52 53  4  0
 53 54  4  0
 54 55  4  0
 55 56  4  0
 56 57  4  0
 57 58  4  0
 58 59  4  0
 37 60  4  0
 60 61  4  0
 61 62  4  0
 62 63  4  0
 63 64  4  0
 64 65  4  0
 65 66  4  0
 18  1  4  0
 66 23  4  0
 17  4  4  0
 66 27  4  0
 15  6  4  0
 64 29  4  0
 13  8  4  0
 62 31  4  0
 22 10  4  0
 60 33  4  0
 59 38  4  0
 59 42  4  0
 57 44  4  0
 55 46  4  0
 53 48  4  0
  1 67  1  0
  2 68  1  0
  3 69  1  0
  5 70  1  0
  9 71  1  0
 12 72  1  0
 16 73  1  0
 18 74  1  0
 19 75  1  0
 20 76  1  0
 21 77  1  0
 24 78  1  0
 25 79  1  0
 26 80  1  0
 28 81  1  0
 30 82  1  0
 32 83  1  0
 34 84  1  0
 35 85  1  0
 36 86  1  0
 39 87  1  0
 40 88  1  0
 41 89  1  0
 43 90  1  0
 47 91  1  0
 49 92  1  0
 50 93  1  0
 51 94  1  0
 52 95  1  0
 54 96  1  0
 58 97  1  0
 61 98  1  0
 63 99  1  0
 65100  1  0
M  END
