
     RDKit          3D

102114  0  0  0  0  0  0  0  0999 V2000
   -6.5944    2.3715   -5.3654 C   0  0  0  0  0  0  0  0  0  0  0  0
   -5.8029    3.1963   -4.5334 C   0  0  0  0  0  0  0  0  0  0  0  0
   -5.4474    2.5252   -3.3656 C   0  0  0  0  0  0  0  0  0  0  0  0
   -4.6960    2.9974   -2.3135 C   0  0  0  0  0  0  0  0  0  0  0  0
   -4.0482    4.2524   -1.9534 C   0  0  0  0  0  0  0  0  0  0  0  0
   -4.6545    5.4859   -2.2271 C   0  0  0  0  0  0  0  0  0  0  0  0
   -4.0247    6.6840   -1.8779 C   0  0  0  0  0  0  0  0  0  0  0  0
   -2.7826    6.6622   -1.2472 C   0  0  0  0  0  0  0  0  0  0  0  0
   -2.1715    5.4440   -0.9603 C   0  0  0  0  0  0  0  0  0  0  0  0
   -2.8022    4.2471   -1.3091 C   0  0  0  0  0  0  0  0  0  0  0  0
   -4.5674    1.9912   -1.3830 O   0  0  0  0  0  0  0  0  0  0  0  0
   -5.2427    0.8798   -1.8332 C   0  0  0  0  0  0  0  0  0  0  0  0
   -5.1724   -0.2780   -0.9512 C   0  0  0  0  0  0  0  0  0  0  0  0
   -5.2376   -0.1135    0.4392 C   0  0  0  0  0  0  0  0  0  0  0  0
   -5.1692   -1.2169    1.2960 C   0  0  0  0  0  0  0  0  0  0  0  0
   -5.0246   -2.5122    0.7820 C   0  0  0  0  0  0  0  0  0  0  0  0
   -4.9431   -3.6729    1.6821 C   0  0  0  0  0  0  0  0  0  0  0  0
   -6.1386   -4.3254    2.0330 C   0  0  0  0  0  0  0  0  0  0  0  0
   -6.1293   -5.4282    2.8801 C   0  0  0  0  0  0  0  0  0  0  0  0
   -4.9223   -5.8966    3.3910 C   0  0  0  0  0  0  0  0  0  0  0  0
   -3.7091   -5.2719    3.0645 C   0  0  0  0  0  0  0  0  0  0  0  0
   -2.4998   -5.7585    3.5908 C   0  0  0  0  0  0  0  0  0  0  0  0
   -1.2682   -5.1577    3.2861 C   0  0  0  0  0  0  0  0  0  0  0  0
   -0.0593   -5.6442    3.8129 C   0  0  0  0  0  0  0  0  0  0  0  0
    1.1713   -5.0395    3.5041 C   0  0  0  0  0  0  0  0  0  0  0  0
    2.3814   -5.5222    4.0269 C   0  0  0  0  0  0  0  0  0  0  0  0
    3.6126   -4.9186    3.7179 C   0  0  0  0  0  0  0  0  0  0  0  0
    4.8031   -5.4283    4.2581 C   0  0  0  0  0  0  0  0  0  0  0  0
    6.0312   -4.8438    3.9630 C   0  0  0  0  0  0  0  0  0  0  0  0
    6.0846   -3.7383    3.1209 C   0  0  0  0  0  0  0  0  0  0  0  0
    4.9129   -3.1988    2.5600 C   0  0  0  0  0  0  0  0  0  0  0  0
    5.0391   -2.0296    1.6764 C   0  0  0  0  0  0  0  0  0  0  0  0
    4.9646   -0.7295    2.1935 C   0  0  0  0  0  0  0  0  0  0  0  0
    5.0705    0.3807    1.3494 C   0  0  0  0  0  0  0  0  0  0  0  0
    5.2625    0.2189   -0.0295 C   0  0  0  0  0  0  0  0  0  0  0  0
    5.3694    1.3823   -0.8999 C   0  0  0  0  0  0  0  0  0  0  0  0
    6.1108    1.7414   -2.0023 C   0  0  0  0  0  0  0  0  0  0  0  0
    7.1090    1.0073   -2.6387 C   0  0  0  0  0  0  0  0  0  0  0  0
    7.6240    1.7173   -3.7476 C   0  0  0  0  0  0  0  0  0  0  0  0
    7.1715    3.0205   -4.1546 C   0  0  0  0  0  0  0  0  0  0  0  0
    6.1631    3.7556   -3.4898 C   0  0  0  0  0  0  0  0  0  0  0  0
    5.6748    3.0463   -2.3948 C   0  0  0  0  0  0  0  0  0  0  0  0
    4.7008    3.4322   -1.5021 C   0  0  0  0  0  0  0  0  0  0  0  0
    3.8696    4.6095   -1.2857 C   0  0  0  0  0  0  0  0  0  0  0  0
    2.5326    4.4689   -0.8853 C   0  0  0  0  0  0  0  0  0  0  0  0
    1.7258    5.5905   -0.6782 C   0  0  0  0  0  0  0  0  0  0  0  0
    2.2489    6.8680   -0.8637 C   0  0  0  0  0  0  0  0  0  0  0  0
    3.5778    7.0245   -1.2516 C   0  0  0  0  0  0  0  0  0  0  0  0
    4.3838    5.9015   -1.4596 C   0  0  0  0  0  0  0  0  0  0  0  0
    4.5130    2.4151   -0.5938 O   0  0  0  0  0  0  0  0  0  0  0  0
    5.3336   -1.0803   -0.5464 C   0  0  0  0  0  0  0  0  0  0  0  0
    5.2255   -2.1918    0.2967 C   0  0  0  0  0  0  0  0  0  0  0  0
    3.6528   -3.7939    2.8597 C   0  0  0  0  0  0  0  0  0  0  0  0
    2.4236   -3.3198    2.3423 C   0  0  0  0  0  0  0  0  0  0  0  0
    1.1927   -3.9237    2.6508 C   0  0  0  0  0  0  0  0  0  0  0  0
   -0.0157   -3.4367    2.1251 C   0  0  0  0  0  0  0  0  0  0  0  0
   -1.2455   -4.0418    2.4329 C   0  0  0  0  0  0  0  0  0  0  0  0
   -2.4543   -3.5556    1.9064 C   0  0  0  0  0  0  0  0  0  0  0  0
   -3.7046   -4.1486    2.2032 C   0  0  0  0  0  0  0  0  0  0  0  0
   -4.9538   -2.6770   -0.6081 C   0  0  0  0  0  0  0  0  0  0  0  0
   -5.0244   -1.5722   -1.4644 C   0  0  0  0  0  0  0  0  0  0  0  0
   -5.8087    1.1766   -3.0522 C   0  0  0  0  0  0  0  0  0  0  0  0
   -6.5962    0.3538   -3.8544 C   0  0  0  0  0  0  0  0  0  0  0  0
   -6.9752    1.0232   -5.0406 C   0  0  0  0  0  0  0  0  0  0  0  0
   -6.9409    2.7813   -6.3152 H   0  0  0  0  0  0  0  0  0  0  0  0
   -5.5203    4.2045   -4.7996 H   0  0  0  0  0  0  0  0  0  0  0  0
   -5.6341    5.5281   -2.6966 H   0  0  0  0  0  0  0  0  0  0  0  0
   -4.5084    7.6333   -2.0927 H   0  0  0  0  0  0  0  0  0  0  0  0
   -2.2938    7.5938   -0.9740 H   0  0  0  0  0  0  0  0  0  0  0  0
   -1.2051    5.4215   -0.4636 H   0  0  0  0  0  0  0  0  0  0  0  0
   -2.3123    3.3031   -1.0776 H   0  0  0  0  0  0  0  0  0  0  0  0
   -5.3457    0.8816    0.8669 H   0  0  0  0  0  0  0  0  0  0  0  0
   -5.2234   -1.0591    2.3714 H   0  0  0  0  0  0  0  0  0  0  0  0
   -7.0883   -3.9661    1.6403 H   0  0  0  0  0  0  0  0  0  0  0  0
   -7.0613   -5.9216    3.1428 H   0  0  0  0  0  0  0  0  0  0  0  0
   -4.9366   -6.7604    4.0527 H   0  0  0  0  0  0  0  0  0  0  0  0
   -2.5169   -6.6232    4.2524 H   0  0  0  0  0  0  0  0  0  0  0  0
   -0.0765   -6.5082    4.4747 H   0  0  0  0  0  0  0  0  0  0  0  0
    2.3639   -6.3868    4.6884 H   0  0  0  0  0  0  0  0  0  0  0  0
    4.7815   -6.2925    4.9191 H   0  0  0  0  0  0  0  0  0  0  0  0
    6.9450   -5.2490    4.3893 H   0  0  0  0  0  0  0  0  0  0  0  0
    7.0504   -3.2884    2.8974 H   0  0  0  0  0  0  0  0  0  0  0  0
    4.8141   -0.5745    3.2601 H   0  0  0  0  0  0  0  0  0  0  0  0
    5.0036    1.3790    1.7779 H   0  0  0  0  0  0  0  0  0  0  0  0
    7.4676    0.0316   -2.3446 H   0  0  0  0  0  0  0  0  0  0  0  0
    8.4148    1.2491   -4.3355 H   0  0  0  0  0  0  0  0  0  0  0  0
    7.6389    3.4679   -5.0330 H   0  0  0  0  0  0  0  0  0  0  0  0
    5.8310    4.7303   -3.8170 H   0  0  0  0  0  0  0  0  0  0  0  0
    2.1098    3.4771   -0.7360 H   0  0  0  0  0  0  0  0  0  0  0  0
    0.6911    5.4638   -0.3709 H   0  0  0  0  0  0  0  0  0  0  0  0
    1.6226    7.7411   -0.7002 H   0  0  0  0  0  0  0  0  0  0  0  0
    3.9907    8.0209   -1.3863 H   0  0  0  0  0  0  0  0  0  0  0  0
    5.4239    6.0490   -1.7391 H   0  0  0  0  0  0  0  0  0  0  0  0
    5.4510   -1.2452   -1.6146 H   0  0  0  0  0  0  0  0  0  0  0  0
    5.2748   -3.1911   -0.1314 H   0  0  0  0  0  0  0  0  0  0  0  0
    2.4215   -2.4554    1.6795 H   0  0  0  0  0  0  0  0  0  0  0  0
    0.0014   -2.5706    1.4647 H   0  0  0  0  0  0  0  0  0  0  0  0
   -2.4175   -2.6892    1.2472 H   0  0  0  0  0  0  0  0  0  0  0  0
   -4.8314   -3.6720   -1.0319 H   0  0  0  0  0  0  0  0  0  0  0  0
   -4.9395   -1.7365   -2.5357 H   0  0  0  0  0  0  0  0  0  0  0  0
   -6.8999   -0.6574   -3.6256 H   0  0  0  0  0  0  0  0  0  0  0  0
   -7.5957    0.4850   -5.7587 H   0  0  0  0  0  0  0  0  0  0  0  0
  1  2  4  0
  2  3  4  0
  3  4  4  0
  4  5  1  0
  5  6  4  0
  6  7  4  0
  7  8  4  0
  8  9  4  0
  9 10  4  0
  4 11  4  0
 11 12  4  0
 12 13  1  0
 13 14  4  0
 14 15  4  0
 15 16  4  0
 16 17  1  0
 17 18  4  0
 18 19  4  0
 19 20  4  0
 20 21  4  0
 21 22  4  0
 22 23  4  0
 23 24  4  0
 24 25  4  0
 25 26  4  0
 26 27  4  0
 27 28  4  0
 28 29  4  0
 29 30  4  0
 30 31  4  0
 31 32  1  0
 32 33  4  0
 33 34  4  0
 34 35  4  0
 35 36  1  0
 36 37  4  0
 37 38  4  0
 38 39  4  0
 39 40  4  0
 40 41  4  0
 41 42  4  0
 42 43  4  0
 43 44  1  0
 44 45  4  0
 45 46  4  0
 46 47  4  0
 47 48  4  0
 48 49  4  0
 43 50  4  0
 35 51  4  0
 51 52  4  0
 31 53  4  0
 53 54  4  0
 54 55  4  0
 55 56  4  0
 56 57  4  0
 57 58  4  0
 58 59  4  0
 16 60  4  0
 60 61  4  0
 12 62  4  0
 62 63  4  0
 63 64  4  0
 64  1  4  0
 62  3  4  0
 10  5  4  0
 61 13  4  0
 59 17  4  0
 59 21  4  0
 57 23  4  0
 55 25  4  0
 53 27  4  0
 52 32  4  0
 50 36  4  0
 42 37  4  0
 49 44  4  0
  1 65  1  0
  2 66  1  0
  6 67  1  0
  7 68  1  0
  8 69  1  0
  9 70  1  0
 10 71  1  0
 14 72  1  0
 15 73  1  0
 18 74  1  0
 19 75  1  0
 20 76  1  0
 22 77  1  0
 24 78  1  0
 26 79  1  0
 28 80  1  0
 29 81  1  0
 30 82  1  0
 33 83  1  0
 34 84  1  0
 38 85  1  0
 39 86  1  0
 40 87  1  0
 41 88  1  0
 45 89  1  0
 46 90  1  0
 47 91  1  0
 48 92  1  0
 49 93  1  0
 51 94  1  0
 52 95  1  0
 54 96  1  0
 56 97  1  0
 58 98  1  0
 60 99  1  0
 61100  1  0
 63101  1  0
 64102  1  0
M  END
