
     RDKit          3D

102114  0  0  0  0  0  0  0  0999 V2000
    5.3877   -0.5973   -0.7542 C   0  0  0  0  0  0  0  0  0  0  0  0
    5.1371   -1.4946    0.3111 C   0  0  0  0  0  0  0  0  0  0  0  0
    4.8674   -1.1049    1.6813 C   0  0  0  0  0  0  0  0  0  0  0  0
    4.6344   -2.1626    2.6844 C   0  0  0  0  0  0  0  0  0  0  0  0
    5.7185   -2.5651    3.4853 C   0  0  0  0  0  0  0  0  0  0  0  0
    5.5686   -3.5620    4.4429 C   0  0  0  0  0  0  0  0  0  0  0  0
    4.3307   -4.1742    4.6146 C   0  0  0  0  0  0  0  0  0  0  0  0
    3.2254   -3.7986    3.8364 C   0  0  0  0  0  0  0  0  0  0  0  0
    1.9831   -4.4284    4.0251 C   0  0  0  0  0  0  0  0  0  0  0  0
    0.8553   -4.0766    3.2671 C   0  0  0  0  0  0  0  0  0  0  0  0
   -0.3859   -4.7086    3.4554 C   0  0  0  0  0  0  0  0  0  0  0  0
   -1.5123   -4.3531    2.6939 C   0  0  0  0  0  0  0  0  0  0  0  0
   -2.7532   -4.9833    2.8764 C   0  0  0  0  0  0  0  0  0  0  0  0
   -3.8806   -4.6289    2.1155 C   0  0  0  0  0  0  0  0  0  0  0  0
   -5.1050   -5.2821    2.3231 C   0  0  0  0  0  0  0  0  0  0  0  0
   -6.2321   -4.9448    1.5796 C   0  0  0  0  0  0  0  0  0  0  0  0
   -6.1496   -3.9448    0.6170 C   0  0  0  0  0  0  0  0  0  0  0  0
   -4.9402   -3.2666    0.3811 C   0  0  0  0  0  0  0  0  0  0  0  0
   -4.9241   -2.2084   -0.6477 C   0  0  0  0  0  0  0  0  0  0  0  0
   -5.1341   -0.8612   -0.2443 C   0  0  0  0  0  0  0  0  0  0  0  0
   -5.0765    0.0140   -1.3267 C   0  0  0  0  0  0  0  0  0  0  0  0
   -5.2471    1.3795   -1.3173 C   0  0  0  0  0  0  0  0  0  0  0  0
   -5.4762    2.4108   -0.3127 C   0  0  0  0  0  0  0  0  0  0  0  0
   -4.8484    2.3551    0.9391 C   0  0  0  0  0  0  0  0  0  0  0  0
   -5.0750    3.3477    1.8970 C   0  0  0  0  0  0  0  0  0  0  0  0
   -5.9295    4.4105    1.6128 C   0  0  0  0  0  0  0  0  0  0  0  0
   -6.5538    4.4851    0.3700 C   0  0  0  0  0  0  0  0  0  0  0  0
   -6.3260    3.4927   -0.5869 C   0  0  0  0  0  0  0  0  0  0  0  0
   -5.1613    1.8376   -2.6123 O   0  0  0  0  0  0  0  0  0  0  0  0
   -4.9037    0.7723   -3.4454 C   0  0  0  0  0  0  0  0  0  0  0  0
   -4.7474    1.1176   -4.8534 C   0  0  0  0  0  0  0  0  0  0  0  0
   -5.5506    2.1107   -5.4338 C   0  0  0  0  0  0  0  0  0  0  0  0
   -5.4101    2.4487   -6.7823 C   0  0  0  0  0  0  0  0  0  0  0  0
   -4.4597    1.8003   -7.5671 C   0  0  0  0  0  0  0  0  0  0  0  0
   -3.6475    0.8187   -7.0035 C   0  0  0  0  0  0  0  0  0  0  0  0
   -3.7894    0.4812   -5.6543 C   0  0  0  0  0  0  0  0  0  0  0  0
   -4.8546   -0.3739   -2.6842 C   0  0  0  0  0  0  0  0  0  0  0  0
   -4.6635   -1.6818   -3.1197 C   0  0  0  0  0  0  0  0  0  0  0  0
   -4.7028   -2.5842   -2.0295 C   0  0  0  0  0  0  0  0  0  0  0  0
   -3.7819   -3.6110    1.1372 C   0  0  0  0  0  0  0  0  0  0  0  0
   -2.5228   -2.9880    0.9643 C   0  0  0  0  0  0  0  0  0  0  0  0
   -1.3953   -3.3430    1.7247 C   0  0  0  0  0  0  0  0  0  0  0  0
   -0.1546   -2.7109    1.5372 C   0  0  0  0  0  0  0  0  0  0  0  0
    0.9722   -3.0671    2.2970 C   0  0  0  0  0  0  0  0  0  0  0  0
    2.2145   -2.4369    2.1085 C   0  0  0  0  0  0  0  0  0  0  0  0
    3.3629   -2.7827    2.8600 C   0  0  0  0  0  0  0  0  0  0  0  0
    4.8236    0.2543    2.0967 C   0  0  0  0  0  0  0  0  0  0  0  0
    5.0627    1.1237    1.0341 C   0  0  0  0  0  0  0  0  0  0  0  0
    5.0876    2.4997    1.0564 C   0  0  0  0  0  0  0  0  0  0  0  0
    4.8697    3.5498    2.0433 C   0  0  0  0  0  0  0  0  0  0  0  0
    3.8696    3.4347    3.0180 C   0  0  0  0  0  0  0  0  0  0  0  0
    3.6703    4.4490    3.9589 C   0  0  0  0  0  0  0  0  0  0  0  0
    4.4659    5.5924    3.9330 C   0  0  0  0  0  0  0  0  0  0  0  0
    5.4580    5.7257    2.9648 C   0  0  0  0  0  0  0  0  0  0  0  0
    5.6563    4.7115    2.0250 C   0  0  0  0  0  0  0  0  0  0  0  0
    5.3869    2.9502   -0.2089 O   0  0  0  0  0  0  0  0  0  0  0  0
    5.5483    1.8667   -1.0409 C   0  0  0  0  0  0  0  0  0  0  0  0
    5.8962    2.1984   -2.4164 C   0  0  0  0  0  0  0  0  0  0  0  0
    5.3066    3.3030   -3.0489 C   0  0  0  0  0  0  0  0  0  0  0  0
    5.6335    3.6319   -4.3665 C   0  0  0  0  0  0  0  0  0  0  0  0
    6.5597    2.8624   -5.0663 C   0  0  0  0  0  0  0  0  0  0  0  0
    7.1608    1.7676   -4.4490 C   0  0  0  0  0  0  0  0  0  0  0  0
    6.8319    1.4385   -3.1310 C   0  0  0  0  0  0  0  0  0  0  0  0
    5.3444    0.7198   -0.3078 C   0  0  0  0  0  0  0  0  0  0  0  0
    5.5756   -0.9233   -1.7669 H   0  0  0  0  0  0  0  0  0  0  0  0
    5.1464   -2.5626    0.0803 H   0  0  0  0  0  0  0  0  0  0  0  0
    6.6926   -2.0961    3.3572 H   0  0  0  0  0  0  0  0  0  0  0  0
    6.4159   -3.8617    5.0539 H   0  0  0  0  0  0  0  0  0  0  0  0
    4.2348   -4.9534    5.3682 H   0  0  0  0  0  0  0  0  0  0  0  0
    1.8912   -5.2098    4.7780 H   0  0  0  0  0  0  0  0  0  0  0  0
   -0.4771   -5.4906    4.2072 H   0  0  0  0  0  0  0  0  0  0  0  0
   -2.8425   -5.7669    3.6273 H   0  0  0  0  0  0  0  0  0  0  0  0
   -5.1906   -6.0662    3.0729 H   0  0  0  0  0  0  0  0  0  0  0  0
   -7.1738   -5.4593    1.7523 H   0  0  0  0  0  0  0  0  0  0  0  0
   -7.0383   -3.6856    0.0439 H   0  0  0  0  0  0  0  0  0  0  0  0
   -5.3247   -0.5793    0.7824 H   0  0  0  0  0  0  0  0  0  0  0  0
   -4.1591    1.5490    1.1775 H   0  0  0  0  0  0  0  0  0  0  0  0
   -4.5773    3.2925    2.8617 H   0  0  0  0  0  0  0  0  0  0  0  0
   -6.1034    5.1833    2.3570 H   0  0  0  0  0  0  0  0  0  0  0  0
   -7.2161    5.3156    0.1408 H   0  0  0  0  0  0  0  0  0  0  0  0
   -6.8205    3.5659   -1.5533 H   0  0  0  0  0  0  0  0  0  0  0  0
   -6.2971    2.6273   -4.8338 H   0  0  0  0  0  0  0  0  0  0  0  0
   -6.0413    3.2202   -7.2156 H   0  0  0  0  0  0  0  0  0  0  0  0
   -4.3476    2.0647   -8.6155 H   0  0  0  0  0  0  0  0  0  0  0  0
   -2.8971    0.3198   -7.6111 H   0  0  0  0  0  0  0  0  0  0  0  0
   -3.1275   -0.2705   -5.2316 H   0  0  0  0  0  0  0  0  0  0  0  0
   -4.5181   -2.0005   -4.1417 H   0  0  0  0  0  0  0  0  0  0  0  0
   -4.5595   -3.6446   -2.2503 H   0  0  0  0  0  0  0  0  0  0  0  0
   -2.4132   -2.2049    0.2153 H   0  0  0  0  0  0  0  0  0  0  0  0
   -0.0648   -1.9277    0.7858 H   0  0  0  0  0  0  0  0  0  0  0  0
    2.2864   -1.6535    1.3548 H   0  0  0  0  0  0  0  0  0  0  0  0
    4.6315    0.5497    3.1191 H   0  0  0  0  0  0  0  0  0  0  0  0
    3.2200    2.5635    3.0447 H   0  0  0  0  0  0  0  0  0  0  0  0
    2.8887    4.3473    4.7075 H   0  0  0  0  0  0  0  0  0  0  0  0
    4.3091    6.3818    4.6632 H   0  0  0  0  0  0  0  0  0  0  0  0
    6.0777    6.6182    2.9366 H   0  0  0  0  0  0  0  0  0  0  0  0
    6.4355    4.8303    1.2744 H   0  0  0  0  0  0  0  0  0  0  0  0
    4.5823    3.9147   -2.5140 H   0  0  0  0  0  0  0  0  0  0  0  0
    5.1658    4.4897   -4.8424 H   0  0  0  0  0  0  0  0  0  0  0  0
    6.8172    3.1201   -6.0901 H   0  0  0  0  0  0  0  0  0  0  0  0
    7.8918    1.1724   -4.9897 H   0  0  0  0  0  0  0  0  0  0  0  0
    7.3317    0.5944   -2.6627 H   0  0  0  0  0  0  0  0  0  0  0  0
  1  2  4  0
  2  3  4  0
  3  4  1  0
  4  5  4  0
  5  6  4  0
  6  7  4  0
  7  8  4  0
  8  9  4  0
  9 10  4  0
 10 11  4  0
 11 12  4  0
 12 13  4  0
 13 14  4  0
 14 15  4  0
 15 16  4  0
 16 17  4  0
 17 18  4  0
 18 19  1  0
 19 20  4  0
 20 21  4  0
 21 22  4  0
 22 23  1  0
 23 24  4  0
 24 25  4  0
 25 26  4  0
 26 27  4  0
 27 28  4  0
 22 29  4  0
 29 30  4  0
 30 31  1  0
 31 32  4  0
 32 33  4  0
 33 34  4  0
 34 35  4  0
 35 36  4  0
 30 37  4  0
 37 38  4  0
 38 39  4  0
 18 40  4  0
 40 41  4  0
 41 42  4  0
 42 43  4  0
 43 44  4  0
 44 45  4  0
 45 46  4  0
  3 47  4  0
 47 48  4  0
 48 49  4  0
 49 50  1  0
 50 51  4  0
 51 52  4  0
 52 53  4  0
 53 54  4  0
 54 55  4  0
 49 56  4  0
 56 57  4  0
 57 58  1  0
 58 59  4  0
 59 60  4  0
 60 61  4  0
 61 62  4  0
 62 63  4  0
 57 64  4  0
 64  1  4  0
 46  4  4  0
 64 48  4  0
 46  8  4  0
 55 50  4  0
 63 58  4  0
 44 10  4  0
 42 12  4  0
 40 14  4  0
 39 19  4  0
 37 21  4  0
 28 23  4  0
 36 31  4  0
  1 65  1  0
  2 66  1  0
  5 67  1  0
  6 68  1  0
  7 69  1  0
  9 70  1  0
 11 71  1  0
 13 72  1  0
 15 73  1  0
 16 74  1  0
 17 75  1  0
 20 76  1  0
 24 77  1  0
 25 78  1  0
 26 79  1  0
 27 80  1  0
 28 81  1  0
 32 82  1  0
 33 83  1  0
 34 84  1  0
 35 85  1  0
 36 86  1  0
 38 87  1  0
 39 88  1  0
 41 89  1  0
 43 90  1  0
 45 91  1  0
 47 92  1  0
 51 93  1  0
 52 94  1  0
 53 95  1  0
 54 96  1  0
 55 97  1  0
 59 98  1  0
 60 99  1  0
 61100  1  0
 62101  1  0
 63102  1  0
M  END
