
     RDKit          3D

102114  0  0  0  0  0  0  0  0999 V2000
    3.3376    3.0559   -3.7993 C   0  0  0  0  0  0  0  0  0  0  0  0
    4.4503    2.3278   -4.2799 C   0  0  0  0  0  0  0  0  0  0  0  0
    4.9009    1.4230   -3.3210 C   0  0  0  0  0  0  0  0  0  0  0  0
    5.9392    0.5254   -3.4266 C   0  0  0  0  0  0  0  0  0  0  0  0
    6.9491    0.1863   -4.4217 C   0  0  0  0  0  0  0  0  0  0  0  0
    7.5687    1.1788   -5.1934 C   0  0  0  0  0  0  0  0  0  0  0  0
    8.5355    0.8437   -6.1458 C   0  0  0  0  0  0  0  0  0  0  0  0
    8.8974   -0.4883   -6.3348 C   0  0  0  0  0  0  0  0  0  0  0  0
    8.2977   -1.4852   -5.5689 C   0  0  0  0  0  0  0  0  0  0  0  0
    7.3317   -1.1491   -4.6171 C   0  0  0  0  0  0  0  0  0  0  0  0
    5.9989   -0.2110   -2.2650 O   0  0  0  0  0  0  0  0  0  0  0  0
    5.0224    0.2359   -1.4042 C   0  0  0  0  0  0  0  0  0  0  0  0
    4.9909   -0.4329   -0.1096 C   0  0  0  0  0  0  0  0  0  0  0  0
    5.2232   -1.8123   -0.0185 C   0  0  0  0  0  0  0  0  0  0  0  0
    5.1919   -2.4624    1.2160 C   0  0  0  0  0  0  0  0  0  0  0  0
    4.9317   -1.7374    2.3780 C   0  0  0  0  0  0  0  0  0  0  0  0
    4.7030   -0.3556    2.3194 C   0  0  0  0  0  0  0  0  0  0  0  0
    4.4410    0.4139    3.5460 C   0  0  0  0  0  0  0  0  0  0  0  0
    5.5320    1.0262    4.1890 C   0  0  0  0  0  0  0  0  0  0  0  0
    5.3535    1.7638    5.3542 C   0  0  0  0  0  0  0  0  0  0  0  0
    4.0788    1.9017    5.8959 C   0  0  0  0  0  0  0  0  0  0  0  0
    2.9656    1.3081    5.2819 C   0  0  0  0  0  0  0  0  0  0  0  0
    1.6856    1.4604    5.8427 C   0  0  0  0  0  0  0  0  0  0  0  0
    0.5494    0.8824    5.2551 C   0  0  0  0  0  0  0  0  0  0  0  0
   -0.7299    1.0348    5.8168 C   0  0  0  0  0  0  0  0  0  0  0  0
   -1.8648    0.4536    5.2250 C   0  0  0  0  0  0  0  0  0  0  0  0
   -3.1445    0.6023    5.7824 C   0  0  0  0  0  0  0  0  0  0  0  0
   -4.2798    0.0204    5.1921 C   0  0  0  0  0  0  0  0  0  0  0  0
   -5.5437    0.1897    5.7775 C   0  0  0  0  0  0  0  0  0  0  0  0
   -6.6788   -0.3794    5.2077 C   0  0  0  0  0  0  0  0  0  0  0  0
   -6.5640   -1.1282    4.0415 C   0  0  0  0  0  0  0  0  0  0  0  0
   -5.3142   -1.3203    3.4252 C   0  0  0  0  0  0  0  0  0  0  0  0
   -5.2631   -2.1247    2.1943 C   0  0  0  0  0  0  0  0  0  0  0  0
   -5.1240   -3.5181    2.2566 C   0  0  0  0  0  0  0  0  0  0  0  0
   -5.0650   -4.2778    1.0888 C   0  0  0  0  0  0  0  0  0  0  0  0
   -5.1497   -3.6523   -0.1566 C   0  0  0  0  0  0  0  0  0  0  0  0
   -5.3000   -2.2630   -0.2502 C   0  0  0  0  0  0  0  0  0  0  0  0
   -5.3875   -1.6008   -1.5453 C   0  0  0  0  0  0  0  0  0  0  0  0
   -5.9748   -1.8594   -2.7628 C   0  0  0  0  0  0  0  0  0  0  0  0
   -6.7736   -2.9449   -3.1149 C   0  0  0  0  0  0  0  0  0  0  0  0
   -7.1745   -2.8550   -4.4677 C   0  0  0  0  0  0  0  0  0  0  0  0
   -6.8026   -1.7835   -5.3519 C   0  0  0  0  0  0  0  0  0  0  0  0
   -5.9990   -0.6833   -4.9737 C   0  0  0  0  0  0  0  0  0  0  0  0
   -5.6221   -0.7825   -3.6362 C   0  0  0  0  0  0  0  0  0  0  0  0
   -4.8544    0.0961   -2.9056 C   0  0  0  0  0  0  0  0  0  0  0  0
   -4.2047    1.3802   -3.1376 C   0  0  0  0  0  0  0  0  0  0  0  0
   -4.8188    2.3730   -3.9132 C   0  0  0  0  0  0  0  0  0  0  0  0
   -4.1871    3.6005   -4.1334 C   0  0  0  0  0  0  0  0  0  0  0  0
   -2.9348    3.8513   -3.5769 C   0  0  0  0  0  0  0  0  0  0  0  0
   -2.3158    2.8786   -2.7955 C   0  0  0  0  0  0  0  0  0  0  0  0
   -2.9489    1.6524   -2.5749 C   0  0  0  0  0  0  0  0  0  0  0  0
   -4.7070   -0.4078   -1.6331 O   0  0  0  0  0  0  0  0  0  0  0  0
   -5.3506   -1.5109    0.9339 C   0  0  0  0  0  0  0  0  0  0  0  0
   -4.1489   -0.7383    4.0044 C   0  0  0  0  0  0  0  0  0  0  0  0
   -2.8518   -0.8769    3.4552 C   0  0  0  0  0  0  0  0  0  0  0  0
   -1.7166   -0.2954    4.0460 C   0  0  0  0  0  0  0  0  0  0  0  0
   -0.4378   -0.4467    3.4842 C   0  0  0  0  0  0  0  0  0  0  0  0
    0.6968    0.1334    4.0758 C   0  0  0  0  0  0  0  0  0  0  0  0
    1.9768   -0.0190    3.5148 C   0  0  0  0  0  0  0  0  0  0  0  0
    3.1331    0.5551    4.0949 C   0  0  0  0  0  0  0  0  0  0  0  0
    4.7397    0.2845    1.0687 C   0  0  0  0  0  0  0  0  0  0  0  0
    4.3166    1.2396   -2.0277 C   0  0  0  0  0  0  0  0  0  0  0  0
    3.2151    1.9404   -1.5418 C   0  0  0  0  0  0  0  0  0  0  0  0
    2.7515    2.8722   -2.4988 C   0  0  0  0  0  0  0  0  0  0  0  0
    2.8862    3.7991   -4.4582 H   0  0  0  0  0  0  0  0  0  0  0  0
    4.8610    2.4647   -5.2698 H   0  0  0  0  0  0  0  0  0  0  0  0
    7.3212    2.2273   -5.0475 H   0  0  0  0  0  0  0  0  0  0  0  0
    9.0106    1.6244   -6.7342 H   0  0  0  0  0  0  0  0  0  0  0  0
    9.6509   -0.7487   -7.0735 H   0  0  0  0  0  0  0  0  0  0  0  0
    8.5812   -2.5251   -5.7083 H   0  0  0  0  0  0  0  0  0  0  0  0
    6.8732   -1.9397   -4.0267 H   0  0  0  0  0  0  0  0  0  0  0  0
    5.4284   -2.3910   -0.9171 H   0  0  0  0  0  0  0  0  0  0  0  0
    5.3719   -3.5328    1.2710 H   0  0  0  0  0  0  0  0  0  0  0  0
    4.9104   -2.2532    3.3360 H   0  0  0  0  0  0  0  0  0  0  0  0
    6.5338    0.9235    3.7746 H   0  0  0  0  0  0  0  0  0  0  0  0
    6.2065    2.2297    5.8404 H   0  0  0  0  0  0  0  0  0  0  0  0
    3.9604    2.4824    6.8085 H   0  0  0  0  0  0  0  0  0  0  0  0
    1.5703    2.0414    6.7565 H   0  0  0  0  0  0  0  0  0  0  0  0
   -0.8450    1.6148    6.7310 H   0  0  0  0  0  0  0  0  0  0  0  0
   -3.2592    1.1840    6.6956 H   0  0  0  0  0  0  0  0  0  0  0  0
   -5.6543    0.7724    6.6897 H   0  0  0  0  0  0  0  0  0  0  0  0
   -7.6515   -0.2384    5.6714 H   0  0  0  0  0  0  0  0  0  0  0  0
   -7.4588   -1.5673    3.6036 H   0  0  0  0  0  0  0  0  0  0  0  0
   -5.0495   -4.0147    3.2222 H   0  0  0  0  0  0  0  0  0  0  0  0
   -4.9441   -5.3564    1.1486 H   0  0  0  0  0  0  0  0  0  0  0  0
   -5.0761   -4.2616   -1.0541 H   0  0  0  0  0  0  0  0  0  0  0  0
   -7.0709   -3.7547   -2.4645 H   0  0  0  0  0  0  0  0  0  0  0  0
   -7.8060   -3.6482   -4.8703 H   0  0  0  0  0  0  0  0  0  0  0  0
   -7.1663   -1.8249   -6.3796 H   0  0  0  0  0  0  0  0  0  0  0  0
   -5.7234    0.1078   -5.6557 H   0  0  0  0  0  0  0  0  0  0  0  0
   -5.8060    2.2103   -4.3382 H   0  0  0  0  0  0  0  0  0  0  0  0
   -4.6772    4.3624   -4.7340 H   0  0  0  0  0  0  0  0  0  0  0  0
   -2.4444    4.8063   -3.7466 H   0  0  0  0  0  0  0  0  0  0  0  0
   -1.3416    3.0718   -2.3541 H   0  0  0  0  0  0  0  0  0  0  0  0
   -2.4530    0.9034   -1.9604 H   0  0  0  0  0  0  0  0  0  0  0  0
   -5.4594   -0.4279    0.8768 H   0  0  0  0  0  0  0  0  0  0  0  0
   -2.7189   -1.4518    2.5397 H   0  0  0  0  0  0  0  0  0  0  0  0
   -0.3238   -1.0275    2.5702 H   0  0  0  0  0  0  0  0  0  0  0  0
    2.0715   -0.6014    2.5993 H   0  0  0  0  0  0  0  0  0  0  0  0
    4.5860    1.3612    1.0264 H   0  0  0  0  0  0  0  0  0  0  0  0
    2.7455    1.8031   -0.5783 H   0  0  0  0  0  0  0  0  0  0  0  0
    1.8876    3.4865   -2.2402 H   0  0  0  0  0  0  0  0  0  0  0  0
  1  2  4  0
  2  3  4  0
  3  4  4  0
  4  5  1  0
  5  6  4  0
  6  7  4  0
  7  8  4  0
  8  9  4  0
  9 10  4  0
  4 11  4  0
 11 12  4  0
 12 13  1  0
 13 14  4  0
 14 15  4  0
 15 16  4  0
 16 17  4  0
 17 18  1  0
 18 19  4  0
 19 20  4  0
 20 21  4  0
 21 22  4  0
 22 23  4  0
 23 24  4  0
 24 25  4  0
 25 26  4  0
 26 27  4  0
 27 28  4  0
 28 29  4  0
 29 30  4  0
 30 31  4  0
 31 32  4  0
 32 33  1  0
 33 34  4  0
 34 35  4  0
 35 36  4  0
 36 37  4  0
 37 38  1  0
 38 39  4  0
 39 40  4  0
 40 41  4  0
 41 42  4  0
 42 43  4  0
 43 44  4  0
 44 45  4  0
 45 46  1  0
 46 47  4  0
 47 48  4  0
 48 49  4  0
 49 50  4  0
 50 51  4  0
 45 52  4  0
 37 53  4  0
 32 54  4  0
 54 55  4  0
 55 56  4  0
 56 57  4  0
 57 58  4  0
 58 59  4  0
 59 60  4  0
 17 61  4  0
 12 62  4  0
 62 63  4  0
 63 64  4  0
 64  1  4  0
 62  3  4  0
 10  5  4  0
 61 13  4  0
 60 18  4  0
 60 22  4  0
 58 24  4  0
 56 26  4  0
 54 28  4  0
 53 33  4  0
 52 38  4  0
 44 39  4  0
 51 46  4  0
  1 65  1  0
  2 66  1  0
  6 67  1  0
  7 68  1  0
  8 69  1  0
  9 70  1  0
 10 71  1  0
 14 72  1  0
 15 73  1  0
 16 74  1  0
 19 75  1  0
 20 76  1  0
 21 77  1  0
 23 78  1  0
 25 79  1  0
 27 80  1  0
 29 81  1  0
 30 82  1  0
 31 83  1  0
 34 84  1  0
 35 85  1  0
 36 86  1  0
 40 87  1  0
 41 88  1  0
 42 89  1  0
 43 90  1  0
 47 91  1  0
 48 92  1  0
 49 93  1  0
 50 94  1  0
 51 95  1  0
 53 96  1  0
 55 97  1  0
 57 98  1  0
 59 99  1  0
 61100  1  0
 63101  1  0
 64102  1  0
M  END
