
     RDKit          3D

 96110  0  0  0  0  0  0  0  0999 V2000
    3.5689   -3.3407    6.9363 C   0  0  0  0  0  0  0  0  0  0  0  0
    3.5497   -1.9601    7.0849 C   0  0  0  0  0  0  0  0  0  0  0  0
    3.8154   -1.1465    5.9835 C   0  0  0  0  0  0  0  0  0  0  0  0
    4.0979   -1.6902    4.7368 C   0  0  0  0  0  0  0  0  0  0  0  0
    4.3490   -0.8776    3.6972 N   0  0  0  0  0  0  0  0  0  0  0  0
    4.6083   -1.4280    2.4892 C   0  0  0  0  0  0  0  0  0  0  0  0
    4.6194   -2.8293    2.3542 C   0  0  0  0  0  0  0  0  0  0  0  0
    4.3769   -3.6501    3.3906 N   0  0  0  0  0  0  0  0  0  0  0  0
    4.1139   -3.0893    4.5835 C   0  0  0  0  0  0  0  0  0  0  0  0
    3.8506   -3.8936    5.6863 C   0  0  0  0  0  0  0  0  0  0  0  0
    4.8842   -3.3924    1.1221 C   0  0  0  0  0  0  0  0  0  0  0  0
    5.1451   -2.6260    0.0042 C   0  0  0  0  0  0  0  0  0  0  0  0
    5.3900   -3.2563   -1.1572 N   0  0  0  0  0  0  0  0  0  0  0  0
    5.6361   -2.4986   -2.2396 C   0  0  0  0  0  0  0  0  0  0  0  0
    5.8858   -3.1016   -3.4668 C   0  0  0  0  0  0  0  0  0  0  0  0
    6.1387   -2.3421   -4.6098 C   0  0  0  0  0  0  0  0  0  0  0  0
    6.1414   -0.9560   -4.5236 C   0  0  0  0  0  0  0  0  0  0  0  0
    5.8930   -0.3436   -3.2951 C   0  0  0  0  0  0  0  0  0  0  0  0
    5.6427   -1.0939   -2.1530 C   0  0  0  0  0  0  0  0  0  0  0  0
    5.4069   -0.4727   -0.9858 N   0  0  0  0  0  0  0  0  0  0  0  0
    5.1452   -1.2222    0.1090 C   0  0  0  0  0  0  0  0  0  0  0  0
    4.8674   -0.6327    1.3567 C   0  0  0  0  0  0  0  0  0  0  0  0
    4.8594    0.8468    1.4829 C   0  0  0  0  0  0  0  0  0  0  0  0
    6.0407    1.4784    1.9193 C   0  0  0  0  0  0  0  0  0  0  0  0
    6.1047    2.8594    2.0611 C   0  0  0  0  0  0  0  0  0  0  0  0
    4.9880    3.6344    1.7674 C   0  0  0  0  0  0  0  0  0  0  0  0
    3.7932    3.0435    1.3300 C   0  0  0  0  0  0  0  0  0  0  0  0
    2.6804    3.8505    1.0412 C   0  0  0  0  0  0  0  0  0  0  0  0
    1.4645    3.3031    0.6058 C   0  0  0  0  0  0  0  0  0  0  0  0
    0.3567    4.1181    0.3205 C   0  0  0  0  0  0  0  0  0  0  0  0
   -0.8635    3.5724   -0.1119 C   0  0  0  0  0  0  0  0  0  0  0  0
   -1.9683    4.3883   -0.3958 C   0  0  0  0  0  0  0  0  0  0  0  0
   -3.1940    3.8509   -0.8221 C   0  0  0  0  0  0  0  0  0  0  0  0
   -4.2705    4.7074   -1.0946 C   0  0  0  0  0  0  0  0  0  0  0  0
   -5.4968    4.2048   -1.5153 C   0  0  0  0  0  0  0  0  0  0  0  0
   -5.6635    2.8334   -1.6658 C   0  0  0  0  0  0  0  0  0  0  0  0
   -4.6072    1.9385   -1.4024 C   0  0  0  0  0  0  0  0  0  0  0  0
   -4.8674    0.4860   -1.5790 C   0  0  0  0  0  0  0  0  0  0  0  0
   -4.8437   -0.0730   -2.8718 C   0  0  0  0  0  0  0  0  0  0  0  0
   -4.5873    0.6793   -3.9673 N   0  0  0  0  0  0  0  0  0  0  0  0
   -4.5691    0.0840   -5.1718 C   0  0  0  0  0  0  0  0  0  0  0  0
   -4.3026    0.8355   -6.3100 C   0  0  0  0  0  0  0  0  0  0  0  0
   -4.2734    0.2492   -7.5757 C   0  0  0  0  0  0  0  0  0  0  0  0
   -4.5168   -1.1119   -7.7044 C   0  0  0  0  0  0  0  0  0  0  0  0
   -4.7865   -1.8725   -6.5657 C   0  0  0  0  0  0  0  0  0  0  0  0
   -4.8160   -1.2954   -5.3010 C   0  0  0  0  0  0  0  0  0  0  0  0
   -5.0790   -2.0537   -4.2227 N   0  0  0  0  0  0  0  0  0  0  0  0
   -5.0948   -1.4501   -3.0219 C   0  0  0  0  0  0  0  0  0  0  0  0
   -5.3695   -2.2183   -1.9083 C   0  0  0  0  0  0  0  0  0  0  0  0
   -5.4078   -1.6832   -0.6365 C   0  0  0  0  0  0  0  0  0  0  0  0
   -5.6850   -2.5034    0.3921 N   0  0  0  0  0  0  0  0  0  0  0  0
   -5.7064   -1.9726    1.6270 C   0  0  0  0  0  0  0  0  0  0  0  0
   -5.9762   -2.7800    2.7257 C   0  0  0  0  0  0  0  0  0  0  0  0
   -5.9965   -2.2593    4.0202 C   0  0  0  0  0  0  0  0  0  0  0  0
   -5.7429   -0.9085    4.2188 C   0  0  0  0  0  0  0  0  0  0  0  0
   -5.4735   -0.0914    3.1207 C   0  0  0  0  0  0  0  0  0  0  0  0
   -5.4539   -0.6030    1.8294 C   0  0  0  0  0  0  0  0  0  0  0  0
   -5.1905    0.2112    0.7940 N   0  0  0  0  0  0  0  0  0  0  0  0
   -5.1552   -0.3106   -0.4534 C   0  0  0  0  0  0  0  0  0  0  0  0
   -3.3430    2.4509   -0.9754 C   0  0  0  0  0  0  0  0  0  0  0  0
   -2.2122    1.6433   -0.6914 C   0  0  0  0  0  0  0  0  0  0  0  0
   -0.9825    2.1813   -0.2629 C   0  0  0  0  0  0  0  0  0  0  0  0
    0.1301    1.3666    0.0209 C   0  0  0  0  0  0  0  0  0  0  0  0
    1.3542    1.9114    0.4537 C   0  0  0  0  0  0  0  0  0  0  0  0
    2.4715    1.1031    0.7403 C   0  0  0  0  0  0  0  0  0  0  0  0
    3.7088    1.6380    1.1815 C   0  0  0  0  0  0  0  0  0  0  0  0
    3.3647   -3.9882    7.7849 H   0  0  0  0  0  0  0  0  0  0  0  0
    3.3283   -1.5117    8.0496 H   0  0  0  0  0  0  0  0  0  0  0  0
    3.7987   -0.0646    6.0943 H   0  0  0  0  0  0  0  0  0  0  0  0
    3.8642   -4.9741    5.5662 H   0  0  0  0  0  0  0  0  0  0  0  0
    4.8876   -4.4763    1.0291 H   0  0  0  0  0  0  0  0  0  0  0  0
    5.8807   -4.1870   -3.5315 H   0  0  0  0  0  0  0  0  0  0  0  0
    6.3297   -2.8346   -5.5595 H   0  0  0  0  0  0  0  0  0  0  0  0
    6.3328   -0.3495   -5.4048 H   0  0  0  0  0  0  0  0  0  0  0  0
    5.8890    0.7416   -3.2225 H   0  0  0  0  0  0  0  0  0  0  0  0
    6.9217    0.8843    2.1538 H   0  0  0  0  0  0  0  0  0  0  0  0
    7.0229    3.3302    2.4009 H   0  0  0  0  0  0  0  0  0  0  0  0
    5.0573    4.7135    1.8858 H   0  0  0  0  0  0  0  0  0  0  0  0
    2.7606    4.9296    1.1596 H   0  0  0  0  0  0  0  0  0  0  0  0
    0.4457    5.1967    0.4391 H   0  0  0  0  0  0  0  0  0  0  0  0
   -1.8719    5.4667   -0.2800 H   0  0  0  0  0  0  0  0  0  0  0  0
   -4.1606    5.7838   -0.9818 H   0  0  0  0  0  0  0  0  0  0  0  0
   -6.3212    4.8800   -1.7255 H   0  0  0  0  0  0  0  0  0  0  0  0
   -6.6290    2.4548   -1.9956 H   0  0  0  0  0  0  0  0  0  0  0  0
   -4.1116    1.9009   -6.2042 H   0  0  0  0  0  0  0  0  0  0  0  0
   -4.0606    0.8566   -8.4517 H   0  0  0  0  0  0  0  0  0  0  0  0
   -4.4982   -1.5834   -8.6837 H   0  0  0  0  0  0  0  0  0  0  0  0
   -4.9779   -2.9383   -6.6633 H   0  0  0  0  0  0  0  0  0  0  0  0
   -5.5640   -3.2809   -2.0376 H   0  0  0  0  0  0  0  0  0  0  0  0
   -6.1715   -3.8378    2.5673 H   0  0  0  0  0  0  0  0  0  0  0  0
   -6.2069   -2.9094    4.8652 H   0  0  0  0  0  0  0  0  0  0  0  0
   -5.7509   -0.4876    5.2207 H   0  0  0  0  0  0  0  0  0  0  0  0
   -5.2691    0.9663    3.2700 H   0  0  0  0  0  0  0  0  0  0  0  0
   -2.2865    0.5635   -0.8000 H   0  0  0  0  0  0  0  0  0  0  0  0
    0.0412    0.2878   -0.0956 H   0  0  0  0  0  0  0  0  0  0  0  0
    2.3713    0.0275    0.6144 H   0  0  0  0  0  0  0  0  0  0  0  0
  1  2  4  0
  2  3  4  0
  3  4  4  0
  4  5  4  0
  5  6  4  0
  6  7  4  0
  7  8  4  0
  8  9  4  0
  9 10  4  0
  7 11  4  0
 11 12  4  0
 12 13  4  0
 13 14  4  0
 14 15  4  0
 15 16  4  0
 16 17  4  0
 17 18  4  0
 18 19  4  0
 19 20  4  0
 20 21  4  0
 21 22  4  0
 22 23  1  0
 23 24  4  0
 24 25  4  0
 25 26  4  0
 26 27  4  0
 27 28  4  0
 28 29  4  0
 29 30  4  0
 30 31  4  0
 31 32  4  0
 32 33  4  0
 33 34  4  0
 34 35  4  0
 35 36  4  0
 36 37  4  0
 37 38  1  0
 38 39  4  0
 39 40  4  0
 40 41  4  0
 41 42  4  0
 42 43  4  0
 43 44  4  0
 44 45  4  0
 45 46  4  0
 46 47  4  0
 47 48  4  0
 48 49  4  0
 49 50  4  0
 50 51  4  0
 51 52  4  0
 52 53  4  0
 53 54  4  0
 54 55  4  0
 55 56  4  0
 56 57  4  0
 57 58  4  0
 58 59  4  0
 37 60  4  0
 60 61  4  0
 61 62  4  0
 62 63  4  0
 63 64  4  0
 64 65  4  0
 65 66  4  0
 10  1  4  0
 21 12  4  0
 66 23  4  0
  9  4  4  0
 19 14  4  0
 66 27  4  0
 22  6  4  0
 64 29  4  0
 62 31  4  0
 60 33  4  0
 59 38  4  0
 48 39  4  0
 59 50  4  0
 46 41  4  0
 57 52  4  0
  1 67  1  0
  2 68  1  0
  3 69  1  0
 10 70  1  0
 11 71  1  0
 15 72  1  0
 16 73  1  0
 17 74  1  0
 18 75  1  0
 24 76  1  0
 25 77  1  0
 26 78  1  0
 28 79  1  0
 30 80  1  0
 32 81  1  0
 34 82  1  0
 35 83  1  0
 36 84  1  0
 42 85  1  0
 43 86  1  0
 44 87  1  0
 45 88  1  0
 49 89  1  0
 53 90  1  0
 54 91  1  0
 55 92  1  0
 56 93  1  0
 61 94  1  0
 63 95  1  0
 65 96  1  0
M  END
