
     RDKit          3D

100114  0  0  0  0  0  0  0  0999 V2000
   10.6651    5.1781   -1.1958 C   0  0  0  0  0  0  0  0  0  0  0  0
    9.9157    4.8590   -0.0657 C   0  0  0  0  0  0  0  0  0  0  0  0
    9.1160    3.7021   -0.0476 C   0  0  0  0  0  0  0  0  0  0  0  0
    8.3511    3.3505    1.0695 C   0  0  0  0  0  0  0  0  0  0  0  0
    7.5689    2.1906    1.0477 C   0  0  0  0  0  0  0  0  0  0  0  0
    6.7853    1.7998    2.1496 C   0  0  0  0  0  0  0  0  0  0  0  0
    6.0119    0.6503    2.1233 C   0  0  0  0  0  0  0  0  0  0  0  0
    5.2802    0.3200    3.1989 N   0  0  0  0  0  0  0  0  0  0  0  0
    4.5282   -0.7942    3.1694 C   0  0  0  0  0  0  0  0  0  0  0  0
    3.7793   -1.1037    4.2945 C   0  0  0  0  0  0  0  0  0  0  0  0
    2.9680   -2.2358    4.3521 C   0  0  0  0  0  0  0  0  0  0  0  0
    2.9005   -3.0880    3.2576 C   0  0  0  0  0  0  0  0  0  0  0  0
    3.6412   -2.8165    2.0961 C   0  0  0  0  0  0  0  0  0  0  0  0
    3.5379   -3.7554    0.9595 C   0  0  0  0  0  0  0  0  0  0  0  0
    4.3750   -4.8867    0.9565 C   0  0  0  0  0  0  0  0  0  0  0  0
    4.3304   -5.8059   -0.0856 C   0  0  0  0  0  0  0  0  0  0  0  0
    3.4470   -5.6089   -1.1426 C   0  0  0  0  0  0  0  0  0  0  0  0
    2.5962   -4.4936   -1.1745 C   0  0  0  0  0  0  0  0  0  0  0  0
    1.7132   -4.3110   -2.2522 C   0  0  0  0  0  0  0  0  0  0  0  0
    0.8489   -3.2072   -2.3190 C   0  0  0  0  0  0  0  0  0  0  0  0
   -0.0315   -3.0264   -3.3990 C   0  0  0  0  0  0  0  0  0  0  0  0
   -0.8938   -1.9190   -3.4641 C   0  0  0  0  0  0  0  0  0  0  0  0
   -1.7710   -1.7355   -4.5436 C   0  0  0  0  0  0  0  0  0  0  0  0
   -2.6345   -0.6298   -4.6139 C   0  0  0  0  0  0  0  0  0  0  0  0
   -3.4954   -0.4799   -5.7114 C   0  0  0  0  0  0  0  0  0  0  0  0
   -4.3600    0.6065   -5.8002 C   0  0  0  0  0  0  0  0  0  0  0  0
   -4.3764    1.5587   -4.7876 C   0  0  0  0  0  0  0  0  0  0  0  0
   -3.5293    1.4415   -3.6697 C   0  0  0  0  0  0  0  0  0  0  0  0
   -3.6082    2.4862   -2.6277 C   0  0  0  0  0  0  0  0  0  0  0  0
   -4.4344    2.3506   -1.4728 C   0  0  0  0  0  0  0  0  0  0  0  0
   -5.2347    1.2216   -1.2066 C   0  0  0  0  0  0  0  0  0  0  0  0
   -6.0186    1.1491   -0.0495 C   0  0  0  0  0  0  0  0  0  0  0  0
   -6.8210    0.0294    0.2413 C   0  0  0  0  0  0  0  0  0  0  0  0
   -7.5934   -0.0363    1.3898 C   0  0  0  0  0  0  0  0  0  0  0  0
   -8.3419   -1.1276    1.6221 N   0  0  0  0  0  0  0  0  0  0  0  0
   -9.0889   -1.1857    2.7393 C   0  0  0  0  0  0  0  0  0  0  0  0
   -9.8637   -2.3117    2.9851 C   0  0  0  0  0  0  0  0  0  0  0  0
  -10.6581   -2.4236    4.1304 C   0  0  0  0  0  0  0  0  0  0  0  0
  -10.6844   -1.3887    5.0579 C   0  0  0  0  0  0  0  0  0  0  0  0
   -9.9169   -0.2476    4.8365 C   0  0  0  0  0  0  0  0  0  0  0  0
   -9.1199   -0.1412    3.6826 C   0  0  0  0  0  0  0  0  0  0  0  0
   -8.3369    0.9895    3.4289 C   0  0  0  0  0  0  0  0  0  0  0  0
   -7.5567    1.0573    2.2695 C   0  0  0  0  0  0  0  0  0  0  0  0
   -6.7544    2.1758    1.9772 C   0  0  0  0  0  0  0  0  0  0  0  0
   -5.9820    2.2392    0.8288 C   0  0  0  0  0  0  0  0  0  0  0  0
   -5.2320    3.3275    0.5964 N   0  0  0  0  0  0  0  0  0  0  0  0
   -4.4788    3.3854   -0.5155 C   0  0  0  0  0  0  0  0  0  0  0  0
   -3.7105    4.5212   -0.7219 C   0  0  0  0  0  0  0  0  0  0  0  0
   -2.8978    4.6684   -1.8448 C   0  0  0  0  0  0  0  0  0  0  0  0
   -2.8480    3.6552   -2.7933 C   0  0  0  0  0  0  0  0  0  0  0  0
   -2.6370    0.3330   -3.5766 C   0  0  0  0  0  0  0  0  0  0  0  0
   -1.7447    0.1335   -2.4953 C   0  0  0  0  0  0  0  0  0  0  0  0
   -0.8785   -0.9724   -2.4264 C   0  0  0  0  0  0  0  0  0  0  0  0
    0.0019   -1.1543   -1.3458 C   0  0  0  0  0  0  0  0  0  0  0  0
    0.8665   -2.2609   -1.2810 C   0  0  0  0  0  0  0  0  0  0  0  0
    1.7500   -2.4441   -0.2025 C   0  0  0  0  0  0  0  0  0  0  0  0
    2.6291   -3.5505   -0.1200 C   0  0  0  0  0  0  0  0  0  0  0  0
    4.4655   -1.6537    2.0528 C   0  0  0  0  0  0  0  0  0  0  0  0
    5.2448   -1.2853    0.9385 C   0  0  0  0  0  0  0  0  0  0  0  0
    6.0283   -0.1263    0.9578 C   0  0  0  0  0  0  0  0  0  0  0  0
    6.8112    0.2630   -0.1449 C   0  0  0  0  0  0  0  0  0  0  0  0
    7.5847    1.4118   -0.1204 C   0  0  0  0  0  0  0  0  0  0  0  0
    8.3148    1.7386   -1.1995 N   0  0  0  0  0  0  0  0  0  0  0  0
    9.0643    2.8548   -1.1708 C   0  0  0  0  0  0  0  0  0  0  0  0
    9.8211    3.1967   -2.2836 C   0  0  0  0  0  0  0  0  0  0  0  0
   10.6181    4.3452   -2.3077 C   0  0  0  0  0  0  0  0  0  0  0  0
   11.2826    6.0725   -1.2081 H   0  0  0  0  0  0  0  0  0  0  0  0
    9.9577    5.5156    0.8003 H   0  0  0  0  0  0  0  0  0  0  0  0
    8.3646    3.9798    1.9564 H   0  0  0  0  0  0  0  0  0  0  0  0
    6.7741    2.4045    3.0539 H   0  0  0  0  0  0  0  0  0  0  0  0
    3.8285   -0.4397    5.1550 H   0  0  0  0  0  0  0  0  0  0  0  0
    2.3922   -2.4478    5.2489 H   0  0  0  0  0  0  0  0  0  0  0  0
    2.2630   -3.9692    3.3052 H   0  0  0  0  0  0  0  0  0  0  0  0
    5.0736   -5.0492    1.7759 H   0  0  0  0  0  0  0  0  0  0  0  0
    4.9842   -6.6741   -0.0755 H   0  0  0  0  0  0  0  0  0  0  0  0
    3.4287   -6.3383   -1.9500 H   0  0  0  0  0  0  0  0  0  0  0  0
    1.6980   -5.0441   -3.0575 H   0  0  0  0  0  0  0  0  0  0  0  0
   -0.0459   -3.7597   -4.2035 H   0  0  0  0  0  0  0  0  0  0  0  0
   -1.7800   -2.4699   -5.3476 H   0  0  0  0  0  0  0  0  0  0  0  0
   -3.4989   -1.2156   -6.5135 H   0  0  0  0  0  0  0  0  0  0  0  0
   -5.0214    0.7093   -6.6565 H   0  0  0  0  0  0  0  0  0  0  0  0
   -5.0608    2.4020   -4.8657 H   0  0  0  0  0  0  0  0  0  0  0  0
   -5.2464    0.3860   -1.9039 H   0  0  0  0  0  0  0  0  0  0  0  0
   -6.8460   -0.8163   -0.4429 H   0  0  0  0  0  0  0  0  0  0  0  0
   -9.8483   -3.1257    2.2641 H   0  0  0  0  0  0  0  0  0  0  0  0
  -11.2522   -3.3193    4.2920 H   0  0  0  0  0  0  0  0  0  0  0  0
  -11.2995   -1.4692    5.9503 H   0  0  0  0  0  0  0  0  0  0  0  0
   -9.9425    0.5579    5.5667 H   0  0  0  0  0  0  0  0  0  0  0  0
   -8.3342    1.8173    4.1343 H   0  0  0  0  0  0  0  0  0  0  0  0
   -6.7267    3.0219    2.6604 H   0  0  0  0  0  0  0  0  0  0  0  0
   -3.7458    5.3188    0.0173 H   0  0  0  0  0  0  0  0  0  0  0  0
   -2.3085    5.5721   -1.9753 H   0  0  0  0  0  0  0  0  0  0  0  0
   -2.2112    3.7739   -3.6685 H   0  0  0  0  0  0  0  0  0  0  0  0
   -1.7230    0.8566   -1.6813 H   0  0  0  0  0  0  0  0  0  0  0  0
    0.0150   -0.4208   -0.5409 H   0  0  0  0  0  0  0  0  0  0  0  0
    1.7531   -1.6994    0.5922 H   0  0  0  0  0  0  0  0  0  0  0  0
    5.2406   -1.9035    0.0427 H   0  0  0  0  0  0  0  0  0  0  0  0
    6.8204   -0.3427   -1.0489 H   0  0  0  0  0  0  0  0  0  0  0  0
    9.7893    2.5501   -3.1574 H   0  0  0  0  0  0  0  0  0  0  0  0
   11.1982    4.5833   -3.1955 H   0  0  0  0  0  0  0  0  0  0  0  0
  1  2  4  0
  2  3  4  0
  3  4  4  0
  4  5  4  0
  5  6  4  0
  6  7  4  0
  7  8  4  0
  8  9  4  0
  9 10  4  0
 10 11  4  0
 11 12  4  0
 12 13  4  0
 13 14  1  0
 14 15  4  0
 15 16  4  0
 16 17  4  0
 17 18  4  0
 18 19  4  0
 19 20  4  0
 20 21  4  0
 21 22  4  0
 22 23  4  0
 23 24  4  0
 24 25  4  0
 25 26  4  0
 26 27  4  0
 27 28  4  0
 28 29  1  0
 29 30  4  0
 30 31  4  0
 31 32  4  0
 32 33  4  0
 33 34  4  0
 34 35  4  0
 35 36  4  0
 36 37  4  0
 37 38  4  0
 38 39  4  0
 39 40  4  0
 40 41  4  0
 41 42  4  0
 42 43  4  0
 43 44  4  0
 44 45  4  0
 45 46  4  0
 46 47  4  0
 47 48  4  0
 48 49  4  0
 49 50  4  0
 28 51  4  0
 51 52  4  0
 52 53  4  0
 53 54  4  0
 54 55  4  0
 55 56  4  0
 56 57  4  0
 13 58  4  0
 58 59  4  0
 59 60  4  0
 60 61  4  0
 61 62  4  0
 62 63  4  0
 63 64  4  0
 64 65  4  0
 65 66  4  0
 66  1  4  0
 64  3  4  0
 62  5  4  0
 60  7  4  0
 58  9  4  0
 57 14  4  0
 57 18  4  0
 55 20  4  0
 53 22  4  0
 51 24  4  0
 50 29  4  0
 47 30  4  0
 45 32  4  0
 43 34  4  0
 41 36  4  0
  1 67  1  0
  2 68  1  0
  4 69  1  0
  6 70  1  0
 10 71  1  0
 11 72  1  0
 12 73  1  0
 15 74  1  0
 16 75  1  0
 17 76  1  0
 19 77  1  0
 21 78  1  0
 23 79  1  0
 25 80  1  0
 26 81  1  0
 27 82  1  0
 31 83  1  0
 33 84  1  0
 37 85  1  0
 38 86  1  0
 39 87  1  0
 40 88  1  0
 42 89  1  0
 44 90  1  0
 48 91  1  0
 49 92  1  0
 50 93  1  0
 52 94  1  0
 54 95  1  0
 56 96  1  0
 59 97  1  0
 61 98  1  0
 65 99  1  0
 66100  1  0
M  END
