
     RDKit          3D

100114  0  0  0  0  0  0  0  0999 V2000
    6.4952   -6.0102    1.7662 C   0  0  0  0  0  0  0  0  0  0  0  0
    5.8695   -6.5506    2.8836 C   0  0  0  0  0  0  0  0  0  0  0  0
    5.0619   -5.7410    3.6884 C   0  0  0  0  0  0  0  0  0  0  0  0
    4.8607   -4.3964    3.4055 C   0  0  0  0  0  0  0  0  0  0  0  0
    4.0737   -3.6615    4.2121 N   0  0  0  0  0  0  0  0  0  0  0  0
    3.8822   -2.3610    3.9336 C   0  0  0  0  0  0  0  0  0  0  0  0
    3.0710   -1.5994    4.7600 C   0  0  0  0  0  0  0  0  0  0  0  0
    2.8362   -0.2330    4.5142 C   0  0  0  0  0  0  0  0  0  0  0  0
    2.0170    0.5431    5.3399 C   0  0  0  0  0  0  0  0  0  0  0  0
    1.8077    1.8981    5.0572 C   0  0  0  0  0  0  0  0  0  0  0  0
    0.9809    2.6839    5.8773 C   0  0  0  0  0  0  0  0  0  0  0  0
    0.7744    4.0275    5.5892 C   0  0  0  0  0  0  0  0  0  0  0  0
    1.3941    4.5902    4.4801 C   0  0  0  0  0  0  0  0  0  0  0  0
    2.2253    3.8151    3.6458 C   0  0  0  0  0  0  0  0  0  0  0  0
    2.8528    4.4652    2.4749 C   0  0  0  0  0  0  0  0  0  0  0  0
    4.1052    5.0827    2.6490 C   0  0  0  0  0  0  0  0  0  0  0  0
    4.7389    5.7265    1.5918 C   0  0  0  0  0  0  0  0  0  0  0  0
    4.1289    5.7653    0.3415 C   0  0  0  0  0  0  0  0  0  0  0  0
    2.8815    5.1595    0.1277 C   0  0  0  0  0  0  0  0  0  0  0  0
    2.2817    5.2089   -1.1427 C   0  0  0  0  0  0  0  0  0  0  0  0
    1.0347    4.6144   -1.3937 C   0  0  0  0  0  0  0  0  0  0  0  0
    0.4334    4.6649   -2.6635 C   0  0  0  0  0  0  0  0  0  0  0  0
   -0.8175    4.0703   -2.9072 C   0  0  0  0  0  0  0  0  0  0  0  0
   -1.4227    4.1151   -4.1729 C   0  0  0  0  0  0  0  0  0  0  0  0
   -2.6756    3.5247   -4.4149 C   0  0  0  0  0  0  0  0  0  0  0  0
   -3.2475    3.5892   -5.6942 C   0  0  0  0  0  0  0  0  0  0  0  0
   -4.4891    3.0173   -5.9541 C   0  0  0  0  0  0  0  0  0  0  0  0
   -5.1788    2.3726   -4.9332 C   0  0  0  0  0  0  0  0  0  0  0  0
   -4.6397    2.2861   -3.6357 C   0  0  0  0  0  0  0  0  0  0  0  0
   -5.4406    1.6102   -2.5904 C   0  0  0  0  0  0  0  0  0  0  0  0
   -6.4868    2.3295   -1.9769 C   0  0  0  0  0  0  0  0  0  0  0  0
   -7.2633    1.7496   -0.9810 C   0  0  0  0  0  0  0  0  0  0  0  0
   -7.0013    0.4435   -0.5857 C   0  0  0  0  0  0  0  0  0  0  0  0
   -5.9625   -0.2874   -1.1855 C   0  0  0  0  0  0  0  0  0  0  0  0
   -5.6829   -1.5981   -0.7808 C   0  0  0  0  0  0  0  0  0  0  0  0
   -4.6350   -2.3114   -1.3709 C   0  0  0  0  0  0  0  0  0  0  0  0
   -4.3050   -3.6230   -0.9800 C   0  0  0  0  0  0  0  0  0  0  0  0
   -3.2545   -4.3148   -1.5621 C   0  0  0  0  0  0  0  0  0  0  0  0
   -2.9725   -5.5603   -1.1449 N   0  0  0  0  0  0  0  0  0  0  0  0
   -1.9496   -6.2259   -1.7110 C   0  0  0  0  0  0  0  0  0  0  0  0
   -1.6527   -7.5132   -1.2833 C   0  0  0  0  0  0  0  0  0  0  0  0
   -0.6005   -8.2490   -1.8370 C   0  0  0  0  0  0  0  0  0  0  0  0
    0.1792   -7.6914   -2.8437 C   0  0  0  0  0  0  0  0  0  0  0  0
   -0.0966   -6.4016   -3.2920 C   0  0  0  0  0  0  0  0  0  0  0  0
   -1.1563   -5.6668   -2.7311 C   0  0  0  0  0  0  0  0  0  0  0  0
   -1.4605   -4.3697   -3.1566 C   0  0  0  0  0  0  0  0  0  0  0  0
   -2.5220   -3.6711   -2.5721 C   0  0  0  0  0  0  0  0  0  0  0  0
   -2.8577   -2.3637   -2.9672 C   0  0  0  0  0  0  0  0  0  0  0  0
   -3.9020   -1.6712   -2.3777 C   0  0  0  0  0  0  0  0  0  0  0  0
   -4.1704   -0.4207   -2.7799 N   0  0  0  0  0  0  0  0  0  0  0  0
   -5.1695    0.2838   -2.2035 C   0  0  0  0  0  0  0  0  0  0  0  0
   -3.3635    2.8660   -3.3674 C   0  0  0  0  0  0  0  0  0  0  0  0
   -2.7350    2.8253   -2.0999 C   0  0  0  0  0  0  0  0  0  0  0  0
   -1.4804    3.4118   -1.8588 C   0  0  0  0  0  0  0  0  0  0  0  0
   -0.8753    3.3538   -0.5925 C   0  0  0  0  0  0  0  0  0  0  0  0
    0.3727    3.9506   -0.3476 C   0  0  0  0  0  0  0  0  0  0  0  0
    0.9736    3.8992    0.9219 C   0  0  0  0  0  0  0  0  0  0  0  0
    2.2269    4.4974    1.1940 C   0  0  0  0  0  0  0  0  0  0  0  0
    2.4449    2.4532    3.9272 C   0  0  0  0  0  0  0  0  0  0  0  0
    3.2375    1.6951    3.1363 N   0  0  0  0  0  0  0  0  0  0  0  0
    3.4285    0.3965    3.4126 C   0  0  0  0  0  0  0  0  0  0  0  0
    4.2388   -0.3628    2.5845 C   0  0  0  0  0  0  0  0  0  0  0  0
    4.4732   -1.7286    2.8283 C   0  0  0  0  0  0  0  0  0  0  0  0
    5.2899   -2.4998    1.9941 C   0  0  0  0  0  0  0  0  0  0  0  0
    5.4972   -3.8549    2.2725 C   0  0  0  0  0  0  0  0  0  0  0  0
    6.3107   -4.6640    1.4589 C   0  0  0  0  0  0  0  0  0  0  0  0
    7.1241   -6.6340    1.1362 H   0  0  0  0  0  0  0  0  0  0  0  0
    6.0052   -7.5995    3.1341 H   0  0  0  0  0  0  0  0  0  0  0  0
    4.5752   -6.1706    4.5609 H   0  0  0  0  0  0  0  0  0  0  0  0
    2.6106   -2.0872    5.6165 H   0  0  0  0  0  0  0  0  0  0  0  0
    1.5387    0.0884    6.2048 H   0  0  0  0  0  0  0  0  0  0  0  0
    0.4890    2.2493    6.7449 H   0  0  0  0  0  0  0  0  0  0  0  0
    0.1324    4.6334    6.2232 H   0  0  0  0  0  0  0  0  0  0  0  0
    1.2289    5.6420    4.2520 H   0  0  0  0  0  0  0  0  0  0  0  0
    4.5943    5.0527    3.6208 H   0  0  0  0  0  0  0  0  0  0  0  0
    5.7080    6.1944    1.7415 H   0  0  0  0  0  0  0  0  0  0  0  0
    4.6415    6.2732   -0.4727 H   0  0  0  0  0  0  0  0  0  0  0  0
    2.7969    5.7204   -1.9541 H   0  0  0  0  0  0  0  0  0  0  0  0
    0.9471    5.1759   -3.4756 H   0  0  0  0  0  0  0  0  0  0  0  0
   -0.9056    4.6194   -4.9873 H   0  0  0  0  0  0  0  0  0  0  0  0
   -2.7239    4.0888   -6.5067 H   0  0  0  0  0  0  0  0  0  0  0  0
   -4.9173    3.0723   -6.9514 H   0  0  0  0  0  0  0  0  0  0  0  0
   -6.1464    1.9239   -5.1498 H   0  0  0  0  0  0  0  0  0  0  0  0
   -6.6873    3.3562   -2.2793 H   0  0  0  0  0  0  0  0  0  0  0  0
   -8.0651    2.3152   -0.5136 H   0  0  0  0  0  0  0  0  0  0  0  0
   -7.6100   -0.0022    0.1981 H   0  0  0  0  0  0  0  0  0  0  0  0
   -6.2759   -2.0625    0.0041 H   0  0  0  0  0  0  0  0  0  0  0  0
   -4.8745   -4.1199   -0.1976 H   0  0  0  0  0  0  0  0  0  0  0  0
   -2.2582   -7.9559   -0.4960 H   0  0  0  0  0  0  0  0  0  0  0  0
   -0.3954   -9.2545   -1.4786 H   0  0  0  0  0  0  0  0  0  0  0  0
    0.9986   -8.2580   -3.2782 H   0  0  0  0  0  0  0  0  0  0  0  0
    0.5175   -5.9715   -4.0799 H   0  0  0  0  0  0  0  0  0  0  0  0
   -0.8701   -3.9024   -3.9415 H   0  0  0  0  0  0  0  0  0  0  0  0
   -2.2895   -1.8641   -3.7494 H   0  0  0  0  0  0  0  0  0  0  0  0
   -3.2287    2.3145   -1.2750 H   0  0  0  0  0  0  0  0  0  0  0  0
   -1.3848    2.8340    0.2174 H   0  0  0  0  0  0  0  0  0  0  0  0
    0.4497    3.3726    1.7178 H   0  0  0  0  0  0  0  0  0  0  0  0
    4.6954    0.1276    1.7269 H   0  0  0  0  0  0  0  0  0  0  0  0
    5.7638   -2.0443    1.1274 H   0  0  0  0  0  0  0  0  0  0  0  0
    6.8031   -4.2477    0.5831 H   0  0  0  0  0  0  0  0  0  0  0  0
  1  2  4  0
  2  3  4  0
  3  4  4  0
  4  5  4  0
  5  6  4  0
  6  7  4  0
  7  8  4  0
  8  9  4  0
  9 10  4  0
 10 11  4  0
 11 12  4  0
 12 13  4  0
 13 14  4  0
 14 15  1  0
 15 16  4  0
 16 17  4  0
 17 18  4  0
 18 19  4  0
 19 20  4  0
 20 21  4  0
 21 22  4  0
 22 23  4  0
 23 24  4  0
 24 25  4  0
 25 26  4  0
 26 27  4  0
 27 28  4  0
 28 29  4  0
 29 30  1  0
 30 31  4  0
 31 32  4  0
 32 33  4  0
 33 34  4  0
 34 35  4  0
 35 36  4  0
 36 37  4  0
 37 38  4  0
 38 39  4  0
 39 40  4  0
 40 41  4  0
 41 42  4  0
 42 43  4  0
 43 44  4  0
 44 45  4  0
 45 46  4  0
 46 47  4  0
 47 48  4  0
 48 49  4  0
 49 50  4  0
 50 51  4  0
 29 52  4  0
 52 53  4  0
 53 54  4  0
 54 55  4  0
 55 56  4  0
 56 57  4  0
 57 58  4  0
 14 59  4  0
 59 60  4  0
 60 61  4  0
 61 62  4  0
 62 63  4  0
 63 64  4  0
 64 65  4  0
 65 66  4  0
 66  1  4  0
 65  4  4  0
 63  6  4  0
 61  8  4  0
 59 10  4  0
 58 15  4  0
 58 19  4  0
 56 21  4  0
 54 23  4  0
 52 25  4  0
 51 30  4  0
 51 34  4  0
 49 36  4  0
 47 38  4  0
 45 40  4  0
  1 67  1  0
  2 68  1  0
  3 69  1  0
  7 70  1  0
  9 71  1  0
 11 72  1  0
 12 73  1  0
 13 74  1  0
 16 75  1  0
 17 76  1  0
 18 77  1  0
 20 78  1  0
 22 79  1  0
 24 80  1  0
 26 81  1  0
 27 82  1  0
 28 83  1  0
 31 84  1  0
 32 85  1  0
 33 86  1  0
 35 87  1  0
 37 88  1  0
 41 89  1  0
 42 90  1  0
 43 91  1  0
 44 92  1  0
 46 93  1  0
 48 94  1  0
 53 95  1  0
 55 96  1  0
 57 97  1  0
 62 98  1  0
 64 99  1  0
 66100  1  0
M  END
