
     RDKit          3D

100114  0  0  0  0  0  0  0  0999 V2000
   -2.8096   -0.6826    5.5852 C   0  0  0  0  0  0  0  0  0  0  0  0
   -2.6601   -1.8927    4.9268 C   0  0  0  0  0  0  0  0  0  0  0  0
   -3.2044   -2.0503    3.6534 C   0  0  0  0  0  0  0  0  0  0  0  0
   -3.9062   -0.9971    3.0106 C   0  0  0  0  0  0  0  0  0  0  0  0
   -4.0495    0.2240    3.6937 C   0  0  0  0  0  0  0  0  0  0  0  0
   -3.5012    0.3579    4.9629 C   0  0  0  0  0  0  0  0  0  0  0  0
   -4.6947    1.2775    3.1760 N   0  0  0  0  0  0  0  0  0  0  0  0
   -5.2358    1.1896    1.9553 C   0  0  0  0  0  0  0  0  0  0  0  0
   -5.8968    2.3027    1.4619 C   0  0  0  0  0  0  0  0  0  0  0  0
   -6.5001    2.3103    0.1931 C   0  0  0  0  0  0  0  0  0  0  0  0
   -7.1708    3.4341   -0.3036 C   0  0  0  0  0  0  0  0  0  0  0  0
   -7.7576    3.3970   -1.5727 C   0  0  0  0  0  0  0  0  0  0  0  0
   -8.4397    4.5041   -2.1091 C   0  0  0  0  0  0  0  0  0  0  0  0
   -9.0116    4.4304   -3.3773 C   0  0  0  0  0  0  0  0  0  0  0  0
   -8.9045    3.2544   -4.1106 C   0  0  0  0  0  0  0  0  0  0  0  0
   -8.2253    2.1576   -3.5715 C   0  0  0  0  0  0  0  0  0  0  0  0
   -7.6457    2.2039   -2.3105 C   0  0  0  0  0  0  0  0  0  0  0  0
   -7.0028    1.1214   -1.8374 N   0  0  0  0  0  0  0  0  0  0  0  0
   -6.4413    1.1702   -0.6170 C   0  0  0  0  0  0  0  0  0  0  0  0
   -5.7740    0.0596   -0.1205 C   0  0  0  0  0  0  0  0  0  0  0  0
   -5.1642    0.0336    1.1629 C   0  0  0  0  0  0  0  0  0  0  0  0
   -4.4787   -1.0890    1.7091 C   0  0  0  0  0  0  0  0  0  0  0  0
   -4.3675   -2.3507    0.9338 C   0  0  0  0  0  0  0  0  0  0  0  0
   -5.4330   -3.2684    1.0053 C   0  0  0  0  0  0  0  0  0  0  0  0
   -5.3834   -4.4753    0.3176 C   0  0  0  0  0  0  0  0  0  0  0  0
   -4.2638   -4.7887   -0.4472 C   0  0  0  0  0  0  0  0  0  0  0  0
   -3.1800   -3.9025   -0.5396 C   0  0  0  0  0  0  0  0  0  0  0  0
   -2.0534   -4.2449   -1.3071 C   0  0  0  0  0  0  0  0  0  0  0  0
   -0.9485   -3.3870   -1.4189 C   0  0  0  0  0  0  0  0  0  0  0  0
    0.1819   -3.7367   -2.1778 C   0  0  0  0  0  0  0  0  0  0  0  0
    1.2867   -2.8750   -2.2865 C   0  0  0  0  0  0  0  0  0  0  0  0
    2.4197   -3.2209   -3.0396 C   0  0  0  0  0  0  0  0  0  0  0  0
    3.5255   -2.3606   -3.1477 C   0  0  0  0  0  0  0  0  0  0  0  0
    4.6421   -2.7403   -3.9079 C   0  0  0  0  0  0  0  0  0  0  0  0
    5.7491   -1.9045   -4.0229 C   0  0  0  0  0  0  0  0  0  0  0  0
    5.7541   -0.6737   -3.3770 C   0  0  0  0  0  0  0  0  0  0  0  0
    4.6517   -0.2573   -2.6069 C   0  0  0  0  0  0  0  0  0  0  0  0
    4.7234    1.0665   -1.9395 C   0  0  0  0  0  0  0  0  0  0  0  0
    5.2210    1.1717   -0.6095 C   0  0  0  0  0  0  0  0  0  0  0  0
    5.6668    0.0710    0.1700 C   0  0  0  0  0  0  0  0  0  0  0  0
    6.1378    0.2076    1.4668 C   0  0  0  0  0  0  0  0  0  0  0  0
    6.5385   -0.8803    2.1461 N   0  0  0  0  0  0  0  0  0  0  0  0
    6.9906   -0.7399    3.4045 C   0  0  0  0  0  0  0  0  0  0  0  0
    7.4024   -1.8623    4.1105 C   0  0  0  0  0  0  0  0  0  0  0  0
    7.8811   -1.7728    5.4211 C   0  0  0  0  0  0  0  0  0  0  0  0
    7.9534   -0.5343    6.0484 C   0  0  0  0  0  0  0  0  0  0  0  0
    7.5464    0.6083    5.3631 C   0  0  0  0  0  0  0  0  0  0  0  0
    7.0650    0.5114    4.0448 C   0  0  0  0  0  0  0  0  0  0  0  0
    6.6458    1.6356    3.3255 C   0  0  0  0  0  0  0  0  0  0  0  0
    6.1720    1.4948    2.0159 C   0  0  0  0  0  0  0  0  0  0  0  0
    5.7368    2.5942    1.2566 C   0  0  0  0  0  0  0  0  0  0  0  0
    5.2635    2.4522   -0.0382 C   0  0  0  0  0  0  0  0  0  0  0  0
    4.8641    3.5552   -0.6823 N   0  0  0  0  0  0  0  0  0  0  0  0
    4.3931    3.4605   -1.9329 C   0  0  0  0  0  0  0  0  0  0  0  0
    3.9836    4.6285   -2.5632 C   0  0  0  0  0  0  0  0  0  0  0  0
    3.4730    4.6296   -3.8622 C   0  0  0  0  0  0  0  0  0  0  0  0
    3.3657    3.4342   -4.5550 C   0  0  0  0  0  0  0  0  0  0  0  0
    3.7721    2.2497   -3.9430 C   0  0  0  0  0  0  0  0  0  0  0  0
    4.2940    2.2389   -2.6234 C   0  0  0  0  0  0  0  0  0  0  0  0
    3.5147   -1.1098   -2.4864 C   0  0  0  0  0  0  0  0  0  0  0  0
    2.3646   -0.7761   -1.7323 C   0  0  0  0  0  0  0  0  0  0  0  0
    1.2591   -1.6369   -1.6235 C   0  0  0  0  0  0  0  0  0  0  0  0
    0.1293   -1.2883   -0.8641 C   0  0  0  0  0  0  0  0  0  0  0  0
   -0.9747   -2.1502   -0.7532 C   0  0  0  0  0  0  0  0  0  0  0  0
   -2.1031   -1.8059    0.0118 C   0  0  0  0  0  0  0  0  0  0  0  0
   -3.2203   -2.6648    0.1456 C   0  0  0  0  0  0  0  0  0  0  0  0
   -2.3920   -0.5414    6.5783 H   0  0  0  0  0  0  0  0  0  0  0  0
   -2.1222   -2.7124    5.3959 H   0  0  0  0  0  0  0  0  0  0  0  0
   -3.0722   -3.0107    3.1585 H   0  0  0  0  0  0  0  0  0  0  0  0
   -3.6154    1.3056    5.4848 H   0  0  0  0  0  0  0  0  0  0  0  0
   -5.9430    3.1906    2.0897 H   0  0  0  0  0  0  0  0  0  0  0  0
   -7.2359    4.3376    0.2982 H   0  0  0  0  0  0  0  0  0  0  0  0
   -8.5272    5.4271   -1.5408 H   0  0  0  0  0  0  0  0  0  0  0  0
   -9.5381    5.2867   -3.7907 H   0  0  0  0  0  0  0  0  0  0  0  0
   -9.3459    3.1838   -5.1013 H   0  0  0  0  0  0  0  0  0  0  0  0
   -8.1448    1.2409   -4.1511 H   0  0  0  0  0  0  0  0  0  0  0  0
   -5.7305   -0.8174   -0.7645 H   0  0  0  0  0  0  0  0  0  0  0  0
   -6.3115   -3.0376    1.6058 H   0  0  0  0  0  0  0  0  0  0  0  0
   -6.2149   -5.1725    0.3792 H   0  0  0  0  0  0  0  0  0  0  0  0
   -4.2439   -5.7401   -0.9752 H   0  0  0  0  0  0  0  0  0  0  0  0
   -2.0330   -5.2021   -1.8258 H   0  0  0  0  0  0  0  0  0  0  0  0
    0.2019   -4.6964   -2.6915 H   0  0  0  0  0  0  0  0  0  0  0  0
    2.4427   -4.1826   -3.5497 H   0  0  0  0  0  0  0  0  0  0  0  0
    4.6596   -3.7012   -4.4184 H   0  0  0  0  0  0  0  0  0  0  0  0
    6.6079   -2.2145   -4.6126 H   0  0  0  0  0  0  0  0  0  0  0  0
    6.6272   -0.0299   -3.4712 H   0  0  0  0  0  0  0  0  0  0  0  0
    5.6430   -0.9369   -0.2415 H   0  0  0  0  0  0  0  0  0  0  0  0
    7.3479   -2.8343    3.6257 H   0  0  0  0  0  0  0  0  0  0  0  0
    8.1951   -2.6717    5.9453 H   0  0  0  0  0  0  0  0  0  0  0  0
    8.3247   -0.4580    7.0671 H   0  0  0  0  0  0  0  0  0  0  0  0
    7.6057    1.5736    5.8607 H   0  0  0  0  0  0  0  0  0  0  0  0
    6.6868    2.6204    3.7851 H   0  0  0  0  0  0  0  0  0  0  0  0
    5.7631    3.5942    1.6852 H   0  0  0  0  0  0  0  0  0  0  0  0
    4.0634    5.5699   -2.0237 H   0  0  0  0  0  0  0  0  0  0  0  0
    3.1610    5.5628   -4.3234 H   0  0  0  0  0  0  0  0  0  0  0  0
    2.9673    3.4179   -5.5661 H   0  0  0  0  0  0  0  0  0  0  0  0
    3.6735    1.3241   -4.5074 H   0  0  0  0  0  0  0  0  0  0  0  0
    2.3259    0.1782   -1.2091 H   0  0  0  0  0  0  0  0  0  0  0  0
    0.1125   -0.3306   -0.3456 H   0  0  0  0  0  0  0  0  0  0  0  0
   -2.1049   -0.8418    0.5187 H   0  0  0  0  0  0  0  0  0  0  0  0
  1  2  4  0
  2  3  4  0
  3  4  4  0
  4  5  4  0
  5  6  4  0
  5  7  4  0
  7  8  4  0
  8  9  4  0
  9 10  4  0
 10 11  4  0
 11 12  4  0
 12 13  4  0
 13 14  4  0
 14 15  4  0
 15 16  4  0
 16 17  4  0
 17 18  4  0
 18 19  4  0
 19 20  4  0
 20 21  4  0
 21 22  4  0
 22 23  1  0
 23 24  4  0
 24 25  4  0
 25 26  4  0
 26 27  4  0
 27 28  4  0
 28 29  4  0
 29 30  4  0
 30 31  4  0
 31 32  4  0
 32 33  4  0
 33 34  4  0
 34 35  4  0
 35 36  4  0
 36 37  4  0
 37 38  1  0
 38 39  4  0
 39 40  4  0
 40 41  4  0
 41 42  4  0
 42 43  4  0
 43 44  4  0
 44 45  4  0
 45 46  4  0
 46 47  4  0
 47 48  4  0
 48 49  4  0
 49 50  4  0
 50 51  4  0
 51 52  4  0
 52 53  4  0
 53 54  4  0
 54 55  4  0
 55 56  4  0
 56 57  4  0
 57 58  4  0
 58 59  4  0
 37 60  4  0
 60 61  4  0
 61 62  4  0
 62 63  4  0
 63 64  4  0
 64 65  4  0
 65 66  4  0
  6  1  4  0
 21  8  4  0
 66 23  4  0
 22  4  4  0
 66 27  4  0
 19 10  4  0
 64 29  4  0
 17 12  4  0
 62 31  4  0
 60 33  4  0
 59 38  4  0
 52 39  4  0
 59 54  4  0
 50 41  4  0
 48 43  4  0
  1 67  1  0
  2 68  1  0
  3 69  1  0
  6 70  1  0
  9 71  1  0
 11 72  1  0
 13 73  1  0
 14 74  1  0
 15 75  1  0
 16 76  1  0
 20 77  1  0
 24 78  1  0
 25 79  1  0
 26 80  1  0
 28 81  1  0
 30 82  1  0
 32 83  1  0
 34 84  1  0
 35 85  1  0
 36 86  1  0
 40 87  1  0
 44 88  1  0
 45 89  1  0
 46 90  1  0
 47 91  1  0
 49 92  1  0
 51 93  1  0
 55 94  1  0
 56 95  1  0
 57 96  1  0
 58 97  1  0
 61 98  1  0
 63 99  1  0
 65100  1  0
M  END
