
     RDKit          3D

100114  0  0  0  0  0  0  0  0999 V2000
    5.6417    8.6501   -1.7419 C   0  0  0  0  0  0  0  0  0  0  0  0
    5.5225    7.8799   -0.5872 C   0  0  0  0  0  0  0  0  0  0  0  0
    5.4513    6.4778   -0.6731 C   0  0  0  0  0  0  0  0  0  0  0  0
    5.3313    5.6733    0.4650 C   0  0  0  0  0  0  0  0  0  0  0  0
    5.2633    4.2814    0.3374 C   0  0  0  0  0  0  0  0  0  0  0  0
    5.1420    3.4355    1.4560 C   0  0  0  0  0  0  0  0  0  0  0  0
    5.0744    2.0576    1.3257 C   0  0  0  0  0  0  0  0  0  0  0  0
    4.9578    1.2952    2.4260 N   0  0  0  0  0  0  0  0  0  0  0  0
    4.8918   -0.0411    2.2945 C   0  0  0  0  0  0  0  0  0  0  0  0
    4.7697   -0.8315    3.4279 C   0  0  0  0  0  0  0  0  0  0  0  0
    4.6928   -2.2267    3.3482 C   0  0  0  0  0  0  0  0  0  0  0  0
    4.7370   -2.8699    2.1076 C   0  0  0  0  0  0  0  0  0  0  0  0
    4.6544   -4.3352    2.0132 C   0  0  0  0  0  0  0  0  0  0  0  0
    5.8431   -5.0759    2.1446 C   0  0  0  0  0  0  0  0  0  0  0  0
    5.8344   -6.4637    2.0570 C   0  0  0  0  0  0  0  0  0  0  0  0
    4.6351   -7.1340    1.8358 C   0  0  0  0  0  0  0  0  0  0  0  0
    3.4290   -6.4301    1.7011 C   0  0  0  0  0  0  0  0  0  0  0  0
    2.2283   -7.1254    1.4785 C   0  0  0  0  0  0  0  0  0  0  0  0
    1.0024   -6.4558    1.3417 C   0  0  0  0  0  0  0  0  0  0  0  0
   -0.1972   -7.1536    1.1196 C   0  0  0  0  0  0  0  0  0  0  0  0
   -1.4232   -6.4799    0.9846 C   0  0  0  0  0  0  0  0  0  0  0  0
   -2.6235   -7.1733    0.7652 C   0  0  0  0  0  0  0  0  0  0  0  0
   -3.8507   -6.5020    0.6302 C   0  0  0  0  0  0  0  0  0  0  0  0
   -5.0309   -7.2301    0.4172 C   0  0  0  0  0  0  0  0  0  0  0  0
   -6.2563   -6.5843    0.2832 C   0  0  0  0  0  0  0  0  0  0  0  0
   -6.3167   -5.1972    0.3567 C   0  0  0  0  0  0  0  0  0  0  0  0
   -5.1546   -4.4321    0.5657 C   0  0  0  0  0  0  0  0  0  0  0  0
   -5.2869   -2.9679    0.6183 C   0  0  0  0  0  0  0  0  0  0  0  0
   -5.7239   -2.3269    1.7814 C   0  0  0  0  0  0  0  0  0  0  0  0
   -5.8362   -0.9324    1.8250 C   0  0  0  0  0  0  0  0  0  0  0  0
   -5.5212   -0.1404    0.7308 C   0  0  0  0  0  0  0  0  0  0  0  0
   -5.6369    1.1953    0.8276 N   0  0  0  0  0  0  0  0  0  0  0  0
   -5.3238    1.9586   -0.2327 C   0  0  0  0  0  0  0  0  0  0  0  0
   -5.4367    3.3361   -0.1367 C   0  0  0  0  0  0  0  0  0  0  0  0
   -5.1180    4.1827   -1.2149 C   0  0  0  0  0  0  0  0  0  0  0  0
   -5.2287    5.5743   -1.1214 C   0  0  0  0  0  0  0  0  0  0  0  0
   -4.9003    6.3795   -2.2170 C   0  0  0  0  0  0  0  0  0  0  0  0
   -4.9979    7.7813   -2.1629 C   0  0  0  0  0  0  0  0  0  0  0  0
   -4.6623    8.5527   -3.2732 C   0  0  0  0  0  0  0  0  0  0  0  0
   -4.2296    7.9281   -4.4371 C   0  0  0  0  0  0  0  0  0  0  0  0
   -4.1347    6.5338   -4.4846 C   0  0  0  0  0  0  0  0  0  0  0  0
   -4.4627    5.7408   -3.3929 C   0  0  0  0  0  0  0  0  0  0  0  0
   -4.3540    4.4036   -3.4904 N   0  0  0  0  0  0  0  0  0  0  0  0
   -4.6727    3.6417   -2.4314 C   0  0  0  0  0  0  0  0  0  0  0  0
   -4.5618    2.2643   -2.5282 C   0  0  0  0  0  0  0  0  0  0  0  0
   -4.8794    1.4182   -1.4498 C   0  0  0  0  0  0  0  0  0  0  0  0
   -4.7652    0.0272   -1.5430 C   0  0  0  0  0  0  0  0  0  0  0  0
   -5.0852   -0.7776   -0.4450 C   0  0  0  0  0  0  0  0  0  0  0  0
   -4.9752   -2.1790   -0.4971 C   0  0  0  0  0  0  0  0  0  0  0  0
   -3.8974   -5.0897    0.7107 C   0  0  0  0  0  0  0  0  0  0  0  0
   -2.6779   -4.4065    0.9379 C   0  0  0  0  0  0  0  0  0  0  0  0
   -1.4503   -5.0783    1.0736 C   0  0  0  0  0  0  0  0  0  0  0  0
   -0.2507   -4.3811    1.2967 C   0  0  0  0  0  0  0  0  0  0  0  0
    0.9756   -5.0542    1.4309 C   0  0  0  0  0  0  0  0  0  0  0  0
    2.1770   -4.3584    1.6529 C   0  0  0  0  0  0  0  0  0  0  0  0
    3.4225   -5.0175    1.7902 C   0  0  0  0  0  0  0  0  0  0  0  0
    4.8652   -2.0829    0.9555 C   0  0  0  0  0  0  0  0  0  0  0  0
    4.9400   -0.6804    1.0424 C   0  0  0  0  0  0  0  0  0  0  0  0
    5.0619    0.1239   -0.0956 C   0  0  0  0  0  0  0  0  0  0  0  0
    5.1309    1.5156    0.0321 C   0  0  0  0  0  0  0  0  0  0  0  0
    5.2525    2.3612   -1.0865 C   0  0  0  0  0  0  0  0  0  0  0  0
    5.3197    3.7391   -0.9563 C   0  0  0  0  0  0  0  0  0  0  0  0
    5.4351    4.5008   -2.0569 N   0  0  0  0  0  0  0  0  0  0  0  0
    5.4997    5.8380   -1.9262 C   0  0  0  0  0  0  0  0  0  0  0  0
    5.6188    6.6297   -3.0607 C   0  0  0  0  0  0  0  0  0  0  0  0
    5.6900    8.0240   -2.9819 C   0  0  0  0  0  0  0  0  0  0  0  0
    5.6965    9.7334   -1.6735 H   0  0  0  0  0  0  0  0  0  0  0  0
    5.4852    8.3769    0.3795 H   0  0  0  0  0  0  0  0  0  0  0  0
    5.2905    6.1306    1.4509 H   0  0  0  0  0  0  0  0  0  0  0  0
    5.0982    3.8577    2.4577 H   0  0  0  0  0  0  0  0  0  0  0  0
    4.7314   -0.3500    4.4024 H   0  0  0  0  0  0  0  0  0  0  0  0
    4.5936   -2.8070    4.2635 H   0  0  0  0  0  0  0  0  0  0  0  0
    6.7881   -4.5627    2.3151 H   0  0  0  0  0  0  0  0  0  0  0  0
    6.7609   -7.0224    2.1599 H   0  0  0  0  0  0  0  0  0  0  0  0
    4.6495   -8.2200    1.7695 H   0  0  0  0  0  0  0  0  0  0  0  0
    2.2472   -8.2122    1.4114 H   0  0  0  0  0  0  0  0  0  0  0  0
   -0.1764   -8.2401    1.0511 H   0  0  0  0  0  0  0  0  0  0  0  0
   -2.6019   -8.2600    0.6997 H   0  0  0  0  0  0  0  0  0  0  0  0
   -5.0047   -8.3163    0.3553 H   0  0  0  0  0  0  0  0  0  0  0  0
   -7.1623   -7.1623    0.1200 H   0  0  0  0  0  0  0  0  0  0  0  0
   -7.2806   -4.7034    0.2443 H   0  0  0  0  0  0  0  0  0  0  0  0
   -5.9731   -2.9078    2.6672 H   0  0  0  0  0  0  0  0  0  0  0  0
   -6.1742   -0.4529    2.7408 H   0  0  0  0  0  0  0  0  0  0  0  0
   -5.7809    3.7574    0.8055 H   0  0  0  0  0  0  0  0  0  0  0  0
   -5.5702    6.0309   -0.1952 H   0  0  0  0  0  0  0  0  0  0  0  0
   -5.3356    8.2771   -1.2557 H   0  0  0  0  0  0  0  0  0  0  0  0
   -4.7384    9.6360   -3.2294 H   0  0  0  0  0  0  0  0  0  0  0  0
   -3.9648    8.5189   -5.3102 H   0  0  0  0  0  0  0  0  0  0  0  0
   -3.7954    6.0523   -5.3987 H   0  0  0  0  0  0  0  0  0  0  0  0
   -4.2171    1.8429   -3.4703 H   0  0  0  0  0  0  0  0  0  0  0  0
   -4.4234   -0.4291   -2.4695 H   0  0  0  0  0  0  0  0  0  0  0  0
   -4.6363   -2.6636   -1.4117 H   0  0  0  0  0  0  0  0  0  0  0  0
   -2.6812   -3.3203    1.0160 H   0  0  0  0  0  0  0  0  0  0  0  0
   -0.2720   -3.2946    1.3682 H   0  0  0  0  0  0  0  0  0  0  0  0
    2.1381   -3.2722    1.7220 H   0  0  0  0  0  0  0  0  0  0  0  0
    4.9025   -2.5698   -0.0180 H   0  0  0  0  0  0  0  0  0  0  0  0
    5.1021   -0.3332   -1.0818 H   0  0  0  0  0  0  0  0  0  0  0  0
    5.2959    1.9390   -2.0883 H   0  0  0  0  0  0  0  0  0  0  0  0
    5.6570    6.1470   -4.0345 H   0  0  0  0  0  0  0  0  0  0  0  0
    5.7828    8.6136   -3.8903 H   0  0  0  0  0  0  0  0  0  0  0  0
  1  2  4  0
  2  3  4  0
  3  4  4  0
  4  5  4  0
  5  6  4  0
  6  7  4  0
  7  8  4  0
  8  9  4  0
  9 10  4  0
 10 11  4  0
 11 12  4  0
 12 13  1  0
 13 14  4  0
 14 15  4  0
 15 16  4  0
 16 17  4  0
 17 18  4  0
 18 19  4  0
 19 20  4  0
 20 21  4  0
 21 22  4  0
 22 23  4  0
 23 24  4  0
 24 25  4  0
 25 26  4  0
 26 27  4  0
 27 28  1  0
 28 29  4  0
 29 30  4  0
 30 31  4  0
 31 32  4  0
 32 33  4  0
 33 34  4  0
 34 35  4  0
 35 36  4  0
 36 37  4  0
 37 38  4  0
 38 39  4  0
 39 40  4  0
 40 41  4  0
 41 42  4  0
 42 43  4  0
 43 44  4  0
 44 45  4  0
 45 46  4  0
 46 47  4  0
 47 48  4  0
 48 49  4  0
 27 50  4  0
 50 51  4  0
 51 52  4  0
 52 53  4  0
 53 54  4  0
 54 55  4  0
 55 56  4  0
 12 57  4  0
 57 58  4  0
 58 59  4  0
 59 60  4  0
 60 61  4  0
 61 62  4  0
 62 63  4  0
 63 64  4  0
 64 65  4  0
 65 66  4  0
 66  1  4  0
 64  3  4  0
 62  5  4  0
 60  7  4  0
 58  9  4  0
 56 13  4  0
 56 17  4  0
 54 19  4  0
 52 21  4  0
 50 23  4  0
 49 28  4  0
 48 31  4  0
 46 33  4  0
 44 35  4  0
 42 37  4  0
  1 67  1  0
  2 68  1  0
  4 69  1  0
  6 70  1  0
 10 71  1  0
 11 72  1  0
 14 73  1  0
 15 74  1  0
 16 75  1  0
 18 76  1  0
 20 77  1  0
 22 78  1  0
 24 79  1  0
 25 80  1  0
 26 81  1  0
 29 82  1  0
 30 83  1  0
 34 84  1  0
 36 85  1  0
 38 86  1  0
 39 87  1  0
 40 88  1  0
 41 89  1  0
 45 90  1  0
 47 91  1  0
 49 92  1  0
 51 93  1  0
 53 94  1  0
 55 95  1  0
 57 96  1  0
 59 97  1  0
 61 98  1  0
 65 99  1  0
 66100  1  0
M  END
