
     RDKit          3D

100114  0  0  0  0  0  0  0  0999 V2000
    5.6333    0.6575    4.8854 C   0  0  0  0  0  0  0  0  0  0  0  0
    5.6724    2.0467    4.9070 C   0  0  0  0  0  0  0  0  0  0  0  0
    5.5558    2.7638    3.7124 C   0  0  0  0  0  0  0  0  0  0  0  0
    5.4003    2.1254    2.4886 C   0  0  0  0  0  0  0  0  0  0  0  0
    5.2925    2.8562    1.3667 N   0  0  0  0  0  0  0  0  0  0  0  0
    5.1385    2.2358    0.1852 C   0  0  0  0  0  0  0  0  0  0  0  0
    5.0339    3.0224   -0.9450 C   0  0  0  0  0  0  0  0  0  0  0  0
    4.8717    2.4739   -2.2253 C   0  0  0  0  0  0  0  0  0  0  0  0
    4.7762    3.3020   -3.3507 C   0  0  0  0  0  0  0  0  0  0  0  0
    4.6151    2.7488   -4.6235 C   0  0  0  0  0  0  0  0  0  0  0  0
    4.5165    3.5457   -5.7789 C   0  0  0  0  0  0  0  0  0  0  0  0
    4.3558    2.9531   -7.0294 C   0  0  0  0  0  0  0  0  0  0  0  0
    4.2934    1.5680   -7.1288 C   0  0  0  0  0  0  0  0  0  0  0  0
    4.3921    0.7836   -5.9756 C   0  0  0  0  0  0  0  0  0  0  0  0
    4.5535    1.3502   -4.7180 C   0  0  0  0  0  0  0  0  0  0  0  0
    4.6460    0.5543   -3.6394 N   0  0  0  0  0  0  0  0  0  0  0  0
    4.8020    1.0828   -2.4043 C   0  0  0  0  0  0  0  0  0  0  0  0
    4.8996    0.2639   -1.2603 C   0  0  0  0  0  0  0  0  0  0  0  0
    4.8196   -1.2123   -1.4198 C   0  0  0  0  0  0  0  0  0  0  0  0
    5.9844   -1.9025   -1.8060 C   0  0  0  0  0  0  0  0  0  0  0  0
    5.9846   -3.2859   -1.9423 C   0  0  0  0  0  0  0  0  0  0  0  0
    4.8200   -4.0045   -1.6905 C   0  0  0  0  0  0  0  0  0  0  0  0
    3.6378   -3.3538   -1.3064 C   0  0  0  0  0  0  0  0  0  0  0  0
    2.4743   -4.1006   -1.0521 C   0  0  0  0  0  0  0  0  0  0  0  0
    1.2733   -3.4863   -0.6639 C   0  0  0  0  0  0  0  0  0  0  0  0
    0.1108   -4.2336   -0.4056 C   0  0  0  0  0  0  0  0  0  0  0  0
   -1.0904   -3.6125   -0.0210 C   0  0  0  0  0  0  0  0  0  0  0  0
   -2.2557   -4.3535    0.2308 C   0  0  0  0  0  0  0  0  0  0  0  0
   -3.4595   -3.7323    0.6058 C   0  0  0  0  0  0  0  0  0  0  0  0
   -4.6058   -4.5068    0.8404 C   0  0  0  0  0  0  0  0  0  0  0  0
   -5.8107   -3.9121    1.2015 C   0  0  0  0  0  0  0  0  0  0  0  0
   -5.8842   -2.5306    1.3374 C   0  0  0  0  0  0  0  0  0  0  0  0
   -4.7536   -1.7192    1.1204 C   0  0  0  0  0  0  0  0  0  0  0  0
   -4.9019   -0.2510    1.3010 C   0  0  0  0  0  0  0  0  0  0  0  0
   -5.1574    0.5535    0.1718 C   0  0  0  0  0  0  0  0  0  0  0  0
   -5.2531    0.0181   -1.0659 N   0  0  0  0  0  0  0  0  0  0  0  0
   -5.4819    0.8000   -2.1337 C   0  0  0  0  0  0  0  0  0  0  0  0
   -5.5698    0.2269   -3.3953 C   0  0  0  0  0  0  0  0  0  0  0  0
   -5.8074    0.9969   -4.5379 C   0  0  0  0  0  0  0  0  0  0  0  0
   -5.9606    2.3737   -4.4234 C   0  0  0  0  0  0  0  0  0  0  0  0
   -5.8761    2.9725   -3.1682 C   0  0  0  0  0  0  0  0  0  0  0  0
   -5.6378    2.1902   -2.0234 C   0  0  0  0  0  0  0  0  0  0  0  0
   -5.5464    2.7498   -0.7464 C   0  0  0  0  0  0  0  0  0  0  0  0
   -5.3043    1.9361    0.3675 C   0  0  0  0  0  0  0  0  0  0  0  0
   -5.2095    2.4894    1.6527 C   0  0  0  0  0  0  0  0  0  0  0  0
   -4.9626    1.7165    2.7703 C   0  0  0  0  0  0  0  0  0  0  0  0
   -4.8918    2.3398    3.9584 N   0  0  0  0  0  0  0  0  0  0  0  0
   -4.6471    1.6231    5.0678 C   0  0  0  0  0  0  0  0  0  0  0  0
   -4.5784    2.2637    6.2987 C   0  0  0  0  0  0  0  0  0  0  0  0
   -4.3247    1.5611    7.4807 C   0  0  0  0  0  0  0  0  0  0  0  0
   -4.1331    0.1852    7.4387 C   0  0  0  0  0  0  0  0  0  0  0  0
   -4.1975   -0.4802    6.2165 C   0  0  0  0  0  0  0  0  0  0  0  0
   -4.4551    0.2334    5.0318 C   0  0  0  0  0  0  0  0  0  0  0  0
   -4.5321   -0.3994    3.7852 C   0  0  0  0  0  0  0  0  0  0  0  0
   -4.7979    0.3311    2.6071 C   0  0  0  0  0  0  0  0  0  0  0  0
   -3.5178   -2.3244    0.7432 C   0  0  0  0  0  0  0  0  0  0  0  0
   -2.3319   -1.5938    0.4916 C   0  0  0  0  0  0  0  0  0  0  0  0
   -1.1292   -2.2145    0.1103 C   0  0  0  0  0  0  0  0  0  0  0  0
    0.0332   -1.4683   -0.1478 C   0  0  0  0  0  0  0  0  0  0  0  0
    1.2335   -2.0883   -0.5342 C   0  0  0  0  0  0  0  0  0  0  0  0
    2.3958   -1.3410   -0.7943 C   0  0  0  0  0  0  0  0  0  0  0  0
    3.6190   -1.9445   -1.1737 C   0  0  0  0  0  0  0  0  0  0  0  0
    5.0783    0.8402    0.0411 C   0  0  0  0  0  0  0  0  0  0  0  0
    5.2014    0.0937    1.2330 C   0  0  0  0  0  0  0  0  0  0  0  0
    5.3612    0.7230    2.4730 C   0  0  0  0  0  0  0  0  0  0  0  0
    5.4777   -0.0060    3.6705 C   0  0  0  0  0  0  0  0  0  0  0  0
    5.7222    0.0925    5.8097 H   0  0  0  0  0  0  0  0  0  0  0  0
    5.7924    2.5771    5.8480 H   0  0  0  0  0  0  0  0  0  0  0  0
    5.5859    3.8504    3.7356 H   0  0  0  0  0  0  0  0  0  0  0  0
    5.0838    4.1028   -0.8186 H   0  0  0  0  0  0  0  0  0  0  0  0
    4.8279    4.3827   -3.2362 H   0  0  0  0  0  0  0  0  0  0  0  0
    4.5651    4.6298   -5.7075 H   0  0  0  0  0  0  0  0  0  0  0  0
    4.2795    3.5691   -7.9216 H   0  0  0  0  0  0  0  0  0  0  0  0
    4.1679    1.0928   -8.0983 H   0  0  0  0  0  0  0  0  0  0  0  0
    4.3410   -0.2999   -6.0569 H   0  0  0  0  0  0  0  0  0  0  0  0
    6.9004   -1.3508   -2.0096 H   0  0  0  0  0  0  0  0  0  0  0  0
    6.8905   -3.8027   -2.2472 H   0  0  0  0  0  0  0  0  0  0  0  0
    4.8415   -5.0864   -1.8031 H   0  0  0  0  0  0  0  0  0  0  0  0
    2.5042   -5.1839   -1.1582 H   0  0  0  0  0  0  0  0  0  0  0  0
    0.1398   -5.3165   -0.5106 H   0  0  0  0  0  0  0  0  0  0  0  0
   -2.2263   -5.4368    0.1262 H   0  0  0  0  0  0  0  0  0  0  0  0
   -4.5702   -5.5891    0.7345 H   0  0  0  0  0  0  0  0  0  0  0  0
   -6.6929   -4.5237    1.3702 H   0  0  0  0  0  0  0  0  0  0  0  0
   -6.8350   -2.0763    1.6103 H   0  0  0  0  0  0  0  0  0  0  0  0
   -5.4484   -0.8499   -3.4893 H   0  0  0  0  0  0  0  0  0  0  0  0
   -5.8700    0.5167   -5.5109 H   0  0  0  0  0  0  0  0  0  0  0  0
   -6.1443    2.9788   -5.3073 H   0  0  0  0  0  0  0  0  0  0  0  0
   -5.9959    4.0501   -3.0857 H   0  0  0  0  0  0  0  0  0  0  0  0
   -5.6620    3.8241   -0.6199 H   0  0  0  0  0  0  0  0  0  0  0  0
   -5.3304    3.5624    1.7931 H   0  0  0  0  0  0  0  0  0  0  0  0
   -4.7271    3.3401    6.3379 H   0  0  0  0  0  0  0  0  0  0  0  0
   -4.2781    2.0924    8.4277 H   0  0  0  0  0  0  0  0  0  0  0  0
   -3.9346   -0.3687    8.3526 H   0  0  0  0  0  0  0  0  0  0  0  0
   -4.0469   -1.5573    6.1899 H   0  0  0  0  0  0  0  0  0  0  0  0
   -4.3810   -1.4761    3.7357 H   0  0  0  0  0  0  0  0  0  0  0  0
   -2.3438   -0.5090    0.5797 H   0  0  0  0  0  0  0  0  0  0  0  0
    0.0023   -0.3840   -0.0497 H   0  0  0  0  0  0  0  0  0  0  0  0
    2.3392   -0.2578   -0.7004 H   0  0  0  0  0  0  0  0  0  0  0  0
    5.1699   -0.9938    1.2005 H   0  0  0  0  0  0  0  0  0  0  0  0
    5.4456   -1.0933    3.6594 H   0  0  0  0  0  0  0  0  0  0  0  0
  1  2  4  0
  2  3  4  0
  3  4  4  0
  4  5  4  0
  5  6  4  0
  6  7  4  0
  7  8  4  0
  8  9  4  0
  9 10  4  0
 10 11  4  0
 11 12  4  0
 12 13  4  0
 13 14  4  0
 14 15  4  0
 15 16  4  0
 16 17  4  0
 17 18  4  0
 18 19  1  0
 19 20  4  0
 20 21  4  0
 21 22  4  0
 22 23  4  0
 23 24  4  0
 24 25  4  0
 25 26  4  0
 26 27  4  0
 27 28  4  0
 28 29  4  0
 29 30  4  0
 30 31  4  0
 31 32  4  0
 32 33  4  0
 33 34  1  0
 34 35  4  0
 35 36  4  0
 36 37  4  0
 37 38  4  0
 38 39  4  0
 39 40  4  0
 40 41  4  0
 41 42  4  0
 42 43  4  0
 43 44  4  0
 44 45  4  0
 45 46  4  0
 46 47  4  0
 47 48  4  0
 48 49  4  0
 49 50  4  0
 50 51  4  0
 51 52  4  0
 52 53  4  0
 53 54  4  0
 54 55  4  0
 33 56  4  0
 56 57  4  0
 57 58  4  0
 58 59  4  0
 59 60  4  0
 60 61  4  0
 61 62  4  0
 18 63  4  0
 63 64  4  0
 64 65  4  0
 65 66  4  0
 66  1  4  0
 65  4  4  0
 63  6  4  0
 17  8  4  0
 62 19  4  0
 15 10  4  0
 62 23  4  0
 60 25  4  0
 58 27  4  0
 56 29  4  0
 55 34  4  0
 44 35  4  0
 55 46  4  0
 42 37  4  0
 53 48  4  0
  1 67  1  0
  2 68  1  0
  3 69  1  0
  7 70  1  0
  9 71  1  0
 11 72  1  0
 12 73  1  0
 13 74  1  0
 14 75  1  0
 20 76  1  0
 21 77  1  0
 22 78  1  0
 24 79  1  0
 26 80  1  0
 28 81  1  0
 30 82  1  0
 31 83  1  0
 32 84  1  0
 38 85  1  0
 39 86  1  0
 40 87  1  0
 41 88  1  0
 43 89  1  0
 45 90  1  0
 49 91  1  0
 50 92  1  0
 51 93  1  0
 52 94  1  0
 54 95  1  0
 57 96  1  0
 59 97  1  0
 61 98  1  0
 64 99  1  0
 66100  1  0
M  END
