
     RDKit          3D

 96110  0  0  0  0  0  0  0  0999 V2000
    5.7828   -6.0020    0.4668 C   0  0  0  0  0  0  0  0  0  0  0  0
    5.8823   -5.7606   -0.8919 C   0  0  0  0  0  0  0  0  0  0  0  0
    5.7868   -4.4571   -1.3828 C   0  0  0  0  0  0  0  0  0  0  0  0
    5.5863   -3.3559   -0.4928 C   0  0  0  0  0  0  0  0  0  0  0  0
    5.4823   -3.5914    0.9037 C   0  0  0  0  0  0  0  0  0  0  0  0
    5.5867   -4.9368    1.3432 C   0  0  0  0  0  0  0  0  0  0  0  0
    5.2806   -2.4879    1.7954 C   0  0  0  0  0  0  0  0  0  0  0  0
    5.1629   -2.6373    3.2017 C   0  0  0  0  0  0  0  0  0  0  0  0
    4.9674   -1.5571    4.0593 C   0  0  0  0  0  0  0  0  0  0  0  0
    4.8825   -0.2779    3.5395 C   0  0  0  0  0  0  0  0  0  0  0  0
    4.9903   -0.0699    2.1631 C   0  0  0  0  0  0  0  0  0  0  0  0
    5.1898   -1.1702    1.2738 C   0  0  0  0  0  0  0  0  0  0  0  0
    5.2942   -0.9348   -0.1215 C   0  0  0  0  0  0  0  0  0  0  0  0
    5.1921    0.4117   -0.5610 C   0  0  0  0  0  0  0  0  0  0  0  0
    4.9941    1.4924    0.3092 C   0  0  0  0  0  0  0  0  0  0  0  0
    4.8892    2.8658   -0.2077 C   0  0  0  0  0  0  0  0  0  0  0  0
    6.0659    3.6302   -0.3051 C   0  0  0  0  0  0  0  0  0  0  0  0
    6.0334    4.9341   -0.7873 C   0  0  0  0  0  0  0  0  0  0  0  0
    4.8220    5.4950   -1.1806 C   0  0  0  0  0  0  0  0  0  0  0  0
    3.6273    4.7638   -1.0983 C   0  0  0  0  0  0  0  0  0  0  0  0
    2.4134    5.3467   -1.5005 C   0  0  0  0  0  0  0  0  0  0  0  0
    1.2000    4.6443   -1.4326 C   0  0  0  0  0  0  0  0  0  0  0  0
   -0.0128    5.2281   -1.8363 C   0  0  0  0  0  0  0  0  0  0  0  0
   -1.2258    4.5218   -1.7653 C   0  0  0  0  0  0  0  0  0  0  0  0
   -2.4394    5.1017   -2.1659 C   0  0  0  0  0  0  0  0  0  0  0  0
   -3.6537    4.3978   -2.0935 C   0  0  0  0  0  0  0  0  0  0  0  0
   -4.8477    5.0110   -2.5018 C   0  0  0  0  0  0  0  0  0  0  0  0
   -6.0599    4.3307   -2.4375 C   0  0  0  0  0  0  0  0  0  0  0  0
   -6.0936    3.0242   -1.9629 C   0  0  0  0  0  0  0  0  0  0  0  0
   -4.9178    2.3754   -1.5441 C   0  0  0  0  0  0  0  0  0  0  0  0
   -5.0282    0.9930   -1.0512 C   0  0  0  0  0  0  0  0  0  0  0  0
   -5.0247   -0.0812   -1.9355 C   0  0  0  0  0  0  0  0  0  0  0  0
   -5.1353   -1.3935   -1.4693 C   0  0  0  0  0  0  0  0  0  0  0  0
   -5.2554   -1.6626   -0.0715 C   0  0  0  0  0  0  0  0  0  0  0  0
   -5.3685   -3.0049    0.3788 C   0  0  0  0  0  0  0  0  0  0  0  0
   -5.3550   -4.0230   -0.6098 C   0  0  0  0  0  0  0  0  0  0  0  0
   -5.2364   -3.7489   -1.9705 C   0  0  0  0  0  0  0  0  0  0  0  0
   -5.1265   -2.4373   -2.3967 C   0  0  0  0  0  0  0  0  0  0  0  0
   -5.4893   -3.2750    1.7808 C   0  0  0  0  0  0  0  0  0  0  0  0
   -5.6090   -4.5855    2.3126 C   0  0  0  0  0  0  0  0  0  0  0  0
   -5.7253   -4.8362    3.6782 C   0  0  0  0  0  0  0  0  0  0  0  0
   -5.7255   -3.7785    4.5702 C   0  0  0  0  0  0  0  0  0  0  0  0
   -5.6103   -2.4670    4.1051 C   0  0  0  0  0  0  0  0  0  0  0  0
   -5.4917   -2.1975    2.7057 C   0  0  0  0  0  0  0  0  0  0  0  0
   -5.3776   -0.8555    2.2551 C   0  0  0  0  0  0  0  0  0  0  0  0
   -5.3855    0.1620    3.2446 C   0  0  0  0  0  0  0  0  0  0  0  0
   -5.5008   -0.1122    4.6058 C   0  0  0  0  0  0  0  0  0  0  0  0
   -5.6131   -1.4234    5.0326 C   0  0  0  0  0  0  0  0  0  0  0  0
   -5.2608   -0.5857    0.8524 C   0  0  0  0  0  0  0  0  0  0  0  0
   -5.1481    0.7262    0.3196 C   0  0  0  0  0  0  0  0  0  0  0  0
   -3.6733    3.0680   -1.6080 C   0  0  0  0  0  0  0  0  0  0  0  0
   -2.4400    2.4975   -1.2118 C   0  0  0  0  0  0  0  0  0  0  0  0
   -1.2260    3.2028   -1.2817 C   0  0  0  0  0  0  0  0  0  0  0  0
   -0.0132    2.6192   -0.8787 C   0  0  0  0  0  0  0  0  0  0  0  0
    1.1995    3.3255   -0.9487 C   0  0  0  0  0  0  0  0  0  0  0  0
    2.4134    2.7428   -0.5457 C   0  0  0  0  0  0  0  0  0  0  0  0
    3.6459    3.4358   -0.6089 C   0  0  0  0  0  0  0  0  0  0  0  0
    4.8975    1.2347    1.6730 C   0  0  0  0  0  0  0  0  0  0  0  0
    5.4929   -2.0383   -1.0142 C   0  0  0  0  0  0  0  0  0  0  0  0
    5.6043   -1.8897   -2.4215 C   0  0  0  0  0  0  0  0  0  0  0  0
    5.7994   -2.9703   -3.2794 C   0  0  0  0  0  0  0  0  0  0  0  0
    5.8905   -4.2492   -2.7595 C   0  0  0  0  0  0  0  0  0  0  0  0
    5.8570   -7.0164    0.8493 H   0  0  0  0  0  0  0  0  0  0  0  0
    6.0352   -6.6014   -1.5649 H   0  0  0  0  0  0  0  0  0  0  0  0
    5.5171   -5.1914    2.3966 H   0  0  0  0  0  0  0  0  0  0  0  0
    5.2209   -3.6151    3.6702 H   0  0  0  0  0  0  0  0  0  0  0  0
    4.8820   -1.7192    5.1304 H   0  0  0  0  0  0  0  0  0  0  0  0
    4.7303    0.5566    4.2207 H   0  0  0  0  0  0  0  0  0  0  0  0
    5.2616    0.6540   -1.6185 H   0  0  0  0  0  0  0  0  0  0  0  0
    7.0192    3.2012   -0.0009 H   0  0  0  0  0  0  0  0  0  0  0  0
    6.9510    5.5124   -0.8567 H   0  0  0  0  0  0  0  0  0  0  0  0
    4.8177    6.5167   -1.5551 H   0  0  0  0  0  0  0  0  0  0  0  0
    2.4123    6.3690   -1.8753 H   0  0  0  0  0  0  0  0  0  0  0  0
   -0.0126    6.2498   -2.2119 H   0  0  0  0  0  0  0  0  0  0  0  0
   -2.4379    6.1237   -2.5416 H   0  0  0  0  0  0  0  0  0  0  0  0
   -4.8425    6.0327   -2.8765 H   0  0  0  0  0  0  0  0  0  0  0  0
   -6.9775    4.8183   -2.7557 H   0  0  0  0  0  0  0  0  0  0  0  0
   -7.0483    2.5027   -1.9154 H   0  0  0  0  0  0  0  0  0  0  0  0
   -4.9312    0.1159   -3.0026 H   0  0  0  0  0  0  0  0  0  0  0  0
   -5.4374   -5.0714   -0.3388 H   0  0  0  0  0  0  0  0  0  0  0  0
   -5.2299   -4.5613   -2.6922 H   0  0  0  0  0  0  0  0  0  0  0  0
   -5.0340   -2.2373   -3.4620 H   0  0  0  0  0  0  0  0  0  0  0  0
   -5.6150   -5.4568    1.6646 H   0  0  0  0  0  0  0  0  0  0  0  0
   -5.8152   -5.8570    4.0399 H   0  0  0  0  0  0  0  0  0  0  0  0
   -5.8166   -3.9883    5.6336 H   0  0  0  0  0  0  0  0  0  0  0  0
   -5.2993    1.2107    2.9750 H   0  0  0  0  0  0  0  0  0  0  0  0
   -5.5022    0.7007    5.3270 H   0  0  0  0  0  0  0  0  0  0  0  0
   -5.7028   -1.6230    6.0979 H   0  0  0  0  0  0  0  0  0  0  0  0
   -5.1514    1.5911    0.9782 H   0  0  0  0  0  0  0  0  0  0  0  0
   -2.4203    1.4746   -0.8375 H   0  0  0  0  0  0  0  0  0  0  0  0
   -0.0135    1.5970   -0.5029 H   0  0  0  0  0  0  0  0  0  0  0  0
    2.3944    1.7195   -0.1727 H   0  0  0  0  0  0  0  0  0  0  0  0
    4.7418    2.0683    2.3563 H   0  0  0  0  0  0  0  0  0  0  0  0
    5.5402   -0.9128   -2.8917 H   0  0  0  0  0  0  0  0  0  0  0  0
    5.8789   -2.8081   -4.3509 H   0  0  0  0  0  0  0  0  0  0  0  0
    6.0427   -5.0834   -3.4405 H   0  0  0  0  0  0  0  0  0  0  0  0
  1  2  4  0
  2  3  4  0
  3  4  4  0
  4  5  4  0
  5  6  4  0
  5  7  4  0
  7  8  4  0
  8  9  4  0
  9 10  4  0
 10 11  4  0
 11 12  4  0
 12 13  4  0
 13 14  4  0
 14 15  4  0
 15 16  1  0
 16 17  4  0
 17 18  4  0
 18 19  4  0
 19 20  4  0
 20 21  4  0
 21 22  4  0
 22 23  4  0
 23 24  4  0
 24 25  4  0
 25 26  4  0
 26 27  4  0
 27 28  4  0
 28 29  4  0
 29 30  4  0
 30 31  1  0
 31 32  4  0
 32 33  4  0
 33 34  4  0
 34 35  4  0
 35 36  4  0
 36 37  4  0
 37 38  4  0
 35 39  4  0
 39 40  4  0
 40 41  4  0
 41 42  4  0
 42 43  4  0
 43 44  4  0
 44 45  4  0
 45 46  4  0
 46 47  4  0
 47 48  4  0
 45 49  4  0
 49 50  4  0
 30 51  4  0
 51 52  4  0
 52 53  4  0
 53 54  4  0
 54 55  4  0
 55 56  4  0
 56 57  4  0
 15 58  4  0
 13 59  4  0
 59 60  4  0
 60 61  4  0
 61 62  4  0
  6  1  4  0
 12  7  4  0
 57 16  4  0
 62  3  4  0
 59  4  4  0
 58 11  4  0
 57 20  4  0
 55 22  4  0
 53 24  4  0
 51 26  4  0
 50 31  4  0
 38 33  4  0
 44 39  4  0
 49 34  4  0
 48 43  4  0
  1 63  1  0
  2 64  1  0
  6 65  1  0
  8 66  1  0
  9 67  1  0
 10 68  1  0
 14 69  1  0
 17 70  1  0
 18 71  1  0
 19 72  1  0
 21 73  1  0
 23 74  1  0
 25 75  1  0
 27 76  1  0
 28 77  1  0
 29 78  1  0
 32 79  1  0
 36 80  1  0
 37 81  1  0
 38 82  1  0
 40 83  1  0
 41 84  1  0
 42 85  1  0
 46 86  1  0
 47 87  1  0
 48 88  1  0
 50 89  1  0
 52 90  1  0
 54 91  1  0
 56 92  1  0
 58 93  1  0
 60 94  1  0
 61 95  1  0
 62 96  1  0
M  END
