
     RDKit          3D

102116  0  0  0  0  0  0  0  0999 V2000
    7.2119    7.6212   -3.3515 C   0  0  0  0  0  0  0  0  0  0  0  0
    7.7145    7.5105   -2.0604 C   0  0  0  0  0  0  0  0  0  0  0  0
    7.5932    6.3019   -1.3677 C   0  0  0  0  0  0  0  0  0  0  0  0
    6.9790    5.1925   -1.9337 C   0  0  0  0  0  0  0  0  0  0  0  0
    6.8886    4.0539   -1.2241 N   0  0  0  0  0  0  0  0  0  0  0  0
    6.2935    2.9816   -1.7747 C   0  0  0  0  0  0  0  0  0  0  0  0
    6.2007    1.8073   -1.0413 C   0  0  0  0  0  0  0  0  0  0  0  0
    5.5918    0.6478   -1.5525 C   0  0  0  0  0  0  0  0  0  0  0  0
    5.5072   -0.5309   -0.7936 C   0  0  0  0  0  0  0  0  0  0  0  0
    4.8969   -1.6875   -1.3049 C   0  0  0  0  0  0  0  0  0  0  0  0
    4.8095   -2.8651   -0.5437 C   0  0  0  0  0  0  0  0  0  0  0  0
    4.1907   -4.0187   -1.0504 C   0  0  0  0  0  0  0  0  0  0  0  0
    4.0970   -5.2388   -0.2333 C   0  0  0  0  0  0  0  0  0  0  0  0
    5.0553   -6.2485   -0.4351 C   0  0  0  0  0  0  0  0  0  0  0  0
    5.0277   -7.4201    0.3132 C   0  0  0  0  0  0  0  0  0  0  0  0
    4.0399   -7.6013    1.2766 C   0  0  0  0  0  0  0  0  0  0  0  0
    3.0653   -6.6184    1.5052 C   0  0  0  0  0  0  0  0  0  0  0  0
    2.0749   -6.8199    2.4821 C   0  0  0  0  0  0  0  0  0  0  0  0
    1.0836   -5.8592    2.7369 C   0  0  0  0  0  0  0  0  0  0  0  0
    0.0949   -6.0603    3.7153 C   0  0  0  0  0  0  0  0  0  0  0  0
   -0.8948   -5.0945    3.9672 C   0  0  0  0  0  0  0  0  0  0  0  0
   -1.8832   -5.2904    4.9442 C   0  0  0  0  0  0  0  0  0  0  0  0
   -2.8725   -4.3249    5.1984 C   0  0  0  0  0  0  0  0  0  0  0  0
   -3.8445   -4.5548    6.1838 C   0  0  0  0  0  0  0  0  0  0  0  0
   -4.8316   -3.6104    6.4499 C   0  0  0  0  0  0  0  0  0  0  0  0
   -4.8588   -2.4200    5.7320 C   0  0  0  0  0  0  0  0  0  0  0  0
   -3.9015   -2.1533    4.7364 C   0  0  0  0  0  0  0  0  0  0  0  0
   -3.9890   -0.8741    4.0150 C   0  0  0  0  0  0  0  0  0  0  0  0
   -4.7419   -0.7681    2.8351 C   0  0  0  0  0  0  0  0  0  0  0  0
   -4.8335    0.4457    2.1322 C   0  0  0  0  0  0  0  0  0  0  0  0
   -5.5843    0.5523    0.9498 C   0  0  0  0  0  0  0  0  0  0  0  0
   -5.6762    1.7657    0.2474 C   0  0  0  0  0  0  0  0  0  0  0  0
   -6.4278    1.8743   -0.9364 C   0  0  0  0  0  0  0  0  0  0  0  0
   -6.5309    3.0636   -1.6443 C   0  0  0  0  0  0  0  0  0  0  0  0
   -7.2666    3.0971   -2.7692 N   0  0  0  0  0  0  0  0  0  0  0  0
   -7.3667    4.2489   -3.4559 C   0  0  0  0  0  0  0  0  0  0  0  0
   -8.1257    4.2864   -4.6180 C   0  0  0  0  0  0  0  0  0  0  0  0
   -8.2637    5.4569   -5.3704 C   0  0  0  0  0  0  0  0  0  0  0  0
   -7.6303    6.6232   -4.9575 C   0  0  0  0  0  0  0  0  0  0  0  0
   -6.8625    6.6137   -3.7951 C   0  0  0  0  0  0  0  0  0  0  0  0
   -6.7276    5.4329   -3.0426 C   0  0  0  0  0  0  0  0  0  0  0  0
   -5.9649    5.3865   -1.8708 C   0  0  0  0  0  0  0  0  0  0  0  0
   -5.8552    4.1922   -1.1499 C   0  0  0  0  0  0  0  0  0  0  0  0
   -5.0982    4.1058    0.0323 C   0  0  0  0  0  0  0  0  0  0  0  0
   -5.0013    2.8984    0.7389 C   0  0  0  0  0  0  0  0  0  0  0  0
   -4.2492    2.7940    1.9212 C   0  0  0  0  0  0  0  0  0  0  0  0
   -4.1572    1.5814    2.6238 C   0  0  0  0  0  0  0  0  0  0  0  0
   -3.4071    1.4755    3.8048 C   0  0  0  0  0  0  0  0  0  0  0  0
   -3.3255    0.2622    4.4925 C   0  0  0  0  0  0  0  0  0  0  0  0
   -2.8889   -3.1175    4.4597 C   0  0  0  0  0  0  0  0  0  0  0  0
   -1.8860   -2.9367    3.4775 C   0  0  0  0  0  0  0  0  0  0  0  0
   -0.8965   -3.9026    3.2239 C   0  0  0  0  0  0  0  0  0  0  0  0
    0.0908   -3.7028    2.2446 C   0  0  0  0  0  0  0  0  0  0  0  0
    1.0811   -4.6672    1.9937 C   0  0  0  0  0  0  0  0  0  0  0  0
    2.0705   -4.4664    1.0159 C   0  0  0  0  0  0  0  0  0  0  0  0
    3.0804   -5.4218    0.7495 C   0  0  0  0  0  0  0  0  0  0  0  0
    3.6632   -3.9830   -2.3465 C   0  0  0  0  0  0  0  0  0  0  0  0
    3.7456   -2.8205   -3.1168 C   0  0  0  0  0  0  0  0  0  0  0  0
    4.3580   -1.6652   -2.6079 C   0  0  0  0  0  0  0  0  0  0  0  0
    4.4443   -0.4868   -3.3670 C   0  0  0  0  0  0  0  0  0  0  0  0
    5.0546    0.6696   -2.8531 C   0  0  0  0  0  0  0  0  0  0  0  0
    5.1428    1.8506   -3.6038 C   0  0  0  0  0  0  0  0  0  0  0  0
    5.7561    2.9994   -3.0731 C   0  0  0  0  0  0  0  0  0  0  0  0
    5.8546    4.1886   -3.8043 C   0  0  0  0  0  0  0  0  0  0  0  0
    6.4719    5.3106   -3.2414 C   0  0  0  0  0  0  0  0  0  0  0  0
    6.5908    6.5238   -3.9435 C   0  0  0  0  0  0  0  0  0  0  0  0
    7.3029    8.5578   -3.8954 H   0  0  0  0  0  0  0  0  0  0  0  0
    8.2014    8.3591   -1.5869 H   0  0  0  0  0  0  0  0  0  0  0  0
    7.9888    6.2225   -0.3578 H   0  0  0  0  0  0  0  0  0  0  0  0
    6.6195    1.8026   -0.0367 H   0  0  0  0  0  0  0  0  0  0  0  0
    5.9220   -0.5477    0.2133 H   0  0  0  0  0  0  0  0  0  0  0  0
    5.2219   -2.8895    0.4643 H   0  0  0  0  0  0  0  0  0  0  0  0
    5.8355   -6.1168   -1.1829 H   0  0  0  0  0  0  0  0  0  0  0  0
    5.7761   -8.1905    0.1473 H   0  0  0  0  0  0  0  0  0  0  0  0
    4.0364   -8.5247    1.8524 H   0  0  0  0  0  0  0  0  0  0  0  0
    2.0749   -7.7446    3.0571 H   0  0  0  0  0  0  0  0  0  0  0  0
    0.0958   -6.9840    4.2912 H   0  0  0  0  0  0  0  0  0  0  0  0
   -1.8818   -6.2150    5.5191 H   0  0  0  0  0  0  0  0  0  0  0  0
   -3.8399   -5.4799    6.7569 H   0  0  0  0  0  0  0  0  0  0  0  0
   -5.5784   -3.8023    7.2158 H   0  0  0  0  0  0  0  0  0  0  0  0
   -5.6356   -1.6884    5.9481 H   0  0  0  0  0  0  0  0  0  0  0  0
   -5.2610   -1.6494    2.4605 H   0  0  0  0  0  0  0  0  0  0  0  0
   -6.1067   -0.3243    0.5694 H   0  0  0  0  0  0  0  0  0  0  0  0
   -6.9540    1.0050   -1.3262 H   0  0  0  0  0  0  0  0  0  0  0  0
   -8.6239    3.3774   -4.9467 H   0  0  0  0  0  0  0  0  0  0  0  0
   -8.8656    5.4508   -6.2754 H   0  0  0  0  0  0  0  0  0  0  0  0
   -7.7335    7.5365   -5.5378 H   0  0  0  0  0  0  0  0  0  0  0  0
   -6.3698    7.5299   -3.4781 H   0  0  0  0  0  0  0  0  0  0  0  0
   -5.4564    6.2814   -1.5204 H   0  0  0  0  0  0  0  0  0  0  0  0
   -4.5813    4.9887    0.4033 H   0  0  0  0  0  0  0  0  0  0  0  0
   -3.7268    3.6699    2.3015 H   0  0  0  0  0  0  0  0  0  0  0  0
   -2.8784    2.3394    4.2015 H   0  0  0  0  0  0  0  0  0  0  0  0
   -2.7367    0.2053    5.4061 H   0  0  0  0  0  0  0  0  0  0  0  0
   -1.8708   -2.0184    2.8921 H   0  0  0  0  0  0  0  0  0  0  0  0
    0.0884   -2.7794    1.6675 H   0  0  0  0  0  0  0  0  0  0  0  0
    2.0508   -3.5377    0.4469 H   0  0  0  0  0  0  0  0  0  0  0  0
    3.1768   -4.8637   -2.7609 H   0  0  0  0  0  0  0  0  0  0  0  0
    3.3231   -2.8249   -4.1191 H   0  0  0  0  0  0  0  0  0  0  0  0
    4.0285   -0.4697   -4.3729 H   0  0  0  0  0  0  0  0  0  0  0  0
    4.7306    1.8793   -4.6106 H   0  0  0  0  0  0  0  0  0  0  0  0
    5.4505    4.2418   -4.8123 H   0  0  0  0  0  0  0  0  0  0  0  0
    6.1998    6.6176   -4.9539 H   0  0  0  0  0  0  0  0  0  0  0  0
  1  2  4  0
  2  3  4  0
  3  4  4  0
  4  5  4  0
  5  6  4  0
  6  7  4  0
  7  8  4  0
  8  9  4  0
  9 10  4  0
 10 11  4  0
 11 12  4  0
 12 13  1  0
 13 14  4  0
 14 15  4  0
 15 16  4  0
 16 17  4  0
 17 18  4  0
 18 19  4  0
 19 20  4  0
 20 21  4  0
 21 22  4  0
 22 23  4  0
 23 24  4  0
 24 25  4  0
 25 26  4  0
 26 27  4  0
 27 28  1  0
 28 29  4  0
 29 30  4  0
 30 31  4  0
 31 32  4  0
 32 33  4  0
 33 34  4  0
 34 35  4  0
 35 36  4  0
 36 37  4  0
 37 38  4  0
 38 39  4  0
 39 40  4  0
 40 41  4  0
 41 42  4  0
 42 43  4  0
 43 44  4  0
 44 45  4  0
 45 46  4  0
 46 47  4  0
 47 48  4  0
 48 49  4  0
 27 50  4  0
 50 51  4  0
 51 52  4  0
 52 53  4  0
 53 54  4  0
 54 55  4  0
 55 56  4  0
 12 57  4  0
 57 58  4  0
 58 59  4  0
 59 60  4  0
 60 61  4  0
 61 62  4  0
 62 63  4  0
 63 64  4  0
 64 65  4  0
 65 66  4  0
 66  1  4  0
 65  4  4  0
 63  6  4  0
 61  8  4  0
 59 10  4  0
 56 13  4  0
 56 17  4  0
 54 19  4  0
 52 21  4  0
 50 23  4  0
 49 28  4  0
 47 30  4  0
 45 32  4  0
 43 34  4  0
 41 36  4  0
  1 67  1  0
  2 68  1  0
  3 69  1  0
  7 70  1  0
  9 71  1  0
 11 72  1  0
 14 73  1  0
 15 74  1  0
 16 75  1  0
 18 76  1  0
 20 77  1  0
 22 78  1  0
 24 79  1  0
 25 80  1  0
 26 81  1  0
 29 82  1  0
 31 83  1  0
 33 84  1  0
 37 85  1  0
 38 86  1  0
 39 87  1  0
 40 88  1  0
 42 89  1  0
 44 90  1  0
 46 91  1  0
 48 92  1  0
 49 93  1  0
 51 94  1  0
 53 95  1  0
 55 96  1  0
 57 97  1  0
 58 98  1  0
 60 99  1  0
 62100  1  0
 64101  1  0
 66102  1  0
M  END
