
     RDKit          3D

102116  0  0  0  0  0  0  0  0999 V2000
   -9.1617   -4.1013    5.4217 C   0  0  0  0  0  0  0  0  0  0  0  0
   -8.5546   -3.4311    6.4773 C   0  0  0  0  0  0  0  0  0  0  0  0
   -7.7274   -2.3334    6.2207 C   0  0  0  0  0  0  0  0  0  0  0  0
   -7.4882   -1.8835    4.9290 C   0  0  0  0  0  0  0  0  0  0  0  0
   -6.6843   -0.8228    4.7376 N   0  0  0  0  0  0  0  0  0  0  0  0
   -6.4543   -0.3896    3.4858 C   0  0  0  0  0  0  0  0  0  0  0  0
   -5.6238    0.7048    3.2887 C   0  0  0  0  0  0  0  0  0  0  0  0
   -5.3385    1.2124    2.0086 C   0  0  0  0  0  0  0  0  0  0  0  0
   -4.4941    2.3209    1.8295 C   0  0  0  0  0  0  0  0  0  0  0  0
   -4.2109    2.8258    0.5499 C   0  0  0  0  0  0  0  0  0  0  0  0
   -3.3670    3.9320    0.3708 C   0  0  0  0  0  0  0  0  0  0  0  0
   -3.0954    4.4229   -0.9085 C   0  0  0  0  0  0  0  0  0  0  0  0
   -3.6593    3.8196   -2.0388 C   0  0  0  0  0  0  0  0  0  0  0  0
   -3.3743    4.3368   -3.3863 C   0  0  0  0  0  0  0  0  0  0  0  0
   -4.2481    5.2980   -3.9261 C   0  0  0  0  0  0  0  0  0  0  0  0
   -4.0327    5.8296   -5.1927 C   0  0  0  0  0  0  0  0  0  0  0  0
   -2.9374    5.4087   -5.9411 C   0  0  0  0  0  0  0  0  0  0  0  0
   -2.0435    4.4521   -5.4367 C   0  0  0  0  0  0  0  0  0  0  0  0
   -0.9416    4.0412   -6.2064 C   0  0  0  0  0  0  0  0  0  0  0  0
   -0.0268    3.0869   -5.7346 C   0  0  0  0  0  0  0  0  0  0  0  0
    1.0766    2.6796   -6.5039 C   0  0  0  0  0  0  0  0  0  0  0  0
    1.9909    1.7247   -6.0266 C   0  0  0  0  0  0  0  0  0  0  0  0
    3.0951    1.3158   -6.7905 C   0  0  0  0  0  0  0  0  0  0  0  0
    4.0117    0.3630   -6.3135 C   0  0  0  0  0  0  0  0  0  0  0  0
    5.1026   -0.0231   -7.1067 C   0  0  0  0  0  0  0  0  0  0  0  0
    6.0207   -0.9649   -6.6522 C   0  0  0  0  0  0  0  0  0  0  0  0
    5.8611   -1.5318   -5.3926 C   0  0  0  0  0  0  0  0  0  0  0  0
    4.7816   -1.1687   -4.5666 C   0  0  0  0  0  0  0  0  0  0  0  0
    4.6821   -1.7970   -3.2395 C   0  0  0  0  0  0  0  0  0  0  0  0
    5.1390   -1.1254   -2.0943 C   0  0  0  0  0  0  0  0  0  0  0  0
    5.0484   -1.7078   -0.8186 C   0  0  0  0  0  0  0  0  0  0  0  0
    5.4985   -1.0325    0.3275 C   0  0  0  0  0  0  0  0  0  0  0  0
    5.4073   -1.6159    1.6021 C   0  0  0  0  0  0  0  0  0  0  0  0
    5.8539   -0.9468    2.7505 C   0  0  0  0  0  0  0  0  0  0  0  0
    5.7561   -1.5457    4.0190 C   0  0  0  0  0  0  0  0  0  0  0  0
    6.1954   -0.8958    5.1777 C   0  0  0  0  0  0  0  0  0  0  0  0
    6.0810   -1.5243    6.4220 C   0  0  0  0  0  0  0  0  0  0  0  0
    6.5103   -0.9044    7.6093 C   0  0  0  0  0  0  0  0  0  0  0  0
    6.3810   -1.5603    8.8316 C   0  0  0  0  0  0  0  0  0  0  0  0
    5.8243   -2.8333    8.8712 C   0  0  0  0  0  0  0  0  0  0  0  0
    5.3994   -3.4439    7.6873 C   0  0  0  0  0  0  0  0  0  0  0  0
    5.5163   -2.8132    6.4559 C   0  0  0  0  0  0  0  0  0  0  0  0
    5.0918   -3.4450    5.3475 N   0  0  0  0  0  0  0  0  0  0  0  0
    5.2060   -2.8315    4.1567 C   0  0  0  0  0  0  0  0  0  0  0  0
    4.7666   -3.4835    3.0129 C   0  0  0  0  0  0  0  0  0  0  0  0
    4.8548   -2.9033    1.7350 C   0  0  0  0  0  0  0  0  0  0  0  0
    4.4037   -3.5792    0.5890 C   0  0  0  0  0  0  0  0  0  0  0  0
    4.4928   -2.9971   -0.6861 C   0  0  0  0  0  0  0  0  0  0  0  0
    4.0407   -3.6703   -1.8310 C   0  0  0  0  0  0  0  0  0  0  0  0
    4.1348   -3.0769   -3.0924 C   0  0  0  0  0  0  0  0  0  0  0  0
    3.8348   -0.2089   -5.0308 C   0  0  0  0  0  0  0  0  0  0  0  0
    2.7121    0.2097   -4.2770 C   0  0  0  0  0  0  0  0  0  0  0  0
    1.7962    1.1637   -4.7537 C   0  0  0  0  0  0  0  0  0  0  0  0
    0.6919    1.5699   -3.9857 C   0  0  0  0  0  0  0  0  0  0  0  0
   -0.2207    2.5265   -4.4612 C   0  0  0  0  0  0  0  0  0  0  0  0
   -1.3228    2.9372   -3.6912 C   0  0  0  0  0  0  0  0  0  0  0  0
   -2.2523    3.9010   -4.1498 C   0  0  0  0  0  0  0  0  0  0  0  0
   -4.5049    2.7137   -1.8601 C   0  0  0  0  0  0  0  0  0  0  0  0
   -4.7871    2.2078   -0.5793 C   0  0  0  0  0  0  0  0  0  0  0  0
   -5.6305    1.0991   -0.3993 C   0  0  0  0  0  0  0  0  0  0  0  0
   -5.9120    0.5950    0.8816 C   0  0  0  0  0  0  0  0  0  0  0  0
   -6.7524   -0.5118    1.0680 C   0  0  0  0  0  0  0  0  0  0  0  0
   -7.0241   -1.0034    2.3573 C   0  0  0  0  0  0  0  0  0  0  0  0
   -7.8595   -2.1064    2.5660 C   0  0  0  0  0  0  0  0  0  0  0  0
   -8.1056   -2.5661    3.8641 C   0  0  0  0  0  0  0  0  0  0  0  0
   -8.9390   -3.6711    4.1155 C   0  0  0  0  0  0  0  0  0  0  0  0
   -9.8059   -4.9554    5.6142 H   0  0  0  0  0  0  0  0  0  0  0  0
   -8.7202   -3.7566    7.5010 H   0  0  0  0  0  0  0  0  0  0  0  0
   -7.2556   -1.8136    7.0512 H   0  0  0  0  0  0  0  0  0  0  0  0
   -5.1865    1.1740    4.1680 H   0  0  0  0  0  0  0  0  0  0  0  0
   -4.0497    2.7985    2.7014 H   0  0  0  0  0  0  0  0  0  0  0  0
   -2.9117    4.4235    1.2279 H   0  0  0  0  0  0  0  0  0  0  0  0
   -2.4362    5.2815   -1.0210 H   0  0  0  0  0  0  0  0  0  0  0  0
   -5.1068    5.6364   -3.3486 H   0  0  0  0  0  0  0  0  0  0  0  0
   -4.7163    6.5720   -5.5961 H   0  0  0  0  0  0  0  0  0  0  0  0
   -2.7856    5.8372   -6.9298 H   0  0  0  0  0  0  0  0  0  0  0  0
   -0.7915    4.4737   -7.1942 H   0  0  0  0  0  0  0  0  0  0  0  0
    1.2271    3.1141   -7.4905 H   0  0  0  0  0  0  0  0  0  0  0  0
    3.2439    1.7495   -7.7782 H   0  0  0  0  0  0  0  0  0  0  0  0
    5.2466    0.4105   -8.0943 H   0  0  0  0  0  0  0  0  0  0  0  0
    6.8609   -1.2543   -7.2777 H   0  0  0  0  0  0  0  0  0  0  0  0
    6.5892   -2.2629   -5.0450 H   0  0  0  0  0  0  0  0  0  0  0  0
    5.5681   -0.1303   -2.2048 H   0  0  0  0  0  0  0  0  0  0  0  0
    5.9263   -0.0366    0.2247 H   0  0  0  0  0  0  0  0  0  0  0  0
    6.2820    0.0496    2.6594 H   0  0  0  0  0  0  0  0  0  0  0  0
    6.6262    0.1003    5.1115 H   0  0  0  0  0  0  0  0  0  0  0  0
    6.9468    0.0913    7.5860 H   0  0  0  0  0  0  0  0  0  0  0  0
    6.7133   -1.0799    9.7483 H   0  0  0  0  0  0  0  0  0  0  0  0
    5.7178   -3.3558    9.8183 H   0  0  0  0  0  0  0  0  0  0  0  0
    4.9646   -4.4400    7.7255 H   0  0  0  0  0  0  0  0  0  0  0  0
    4.3413   -4.4786    3.1286 H   0  0  0  0  0  0  0  0  0  0  0  0
    3.9755   -4.5752    0.6919 H   0  0  0  0  0  0  0  0  0  0  0  0
    3.6085   -4.6654   -1.7506 H   0  0  0  0  0  0  0  0  0  0  0  0
    3.7725   -3.6184   -3.9642 H   0  0  0  0  0  0  0  0  0  0  0  0
    2.5414   -0.2189   -3.2906 H   0  0  0  0  0  0  0  0  0  0  0  0
    0.5410    1.1344   -2.9990 H   0  0  0  0  0  0  0  0  0  0  0  0
   -1.4569    2.4918   -2.7065 H   0  0  0  0  0  0  0  0  0  0  0  0
   -4.9453    2.2413   -2.7371 H   0  0  0  0  0  0  0  0  0  0  0  0
   -6.0735    0.6209   -1.2713 H   0  0  0  0  0  0  0  0  0  0  0  0
   -7.2001   -0.9977    0.2033 H   0  0  0  0  0  0  0  0  0  0  0  0
   -8.3186   -2.6079    1.7176 H   0  0  0  0  0  0  0  0  0  0  0  0
   -9.4172   -4.2002    3.2946 H   0  0  0  0  0  0  0  0  0  0  0  0
  1  2  4  0
  2  3  4  0
  3  4  4  0
  4  5  4  0
  5  6  4  0
  6  7  4  0
  7  8  4  0
  8  9  4  0
  9 10  4  0
 10 11  4  0
 11 12  4  0
 12 13  4  0
 13 14  1  0
 14 15  4  0
 15 16  4  0
 16 17  4  0
 17 18  4  0
 18 19  4  0
 19 20  4  0
 20 21  4  0
 21 22  4  0
 22 23  4  0
 23 24  4  0
 24 25  4  0
 25 26  4  0
 26 27  4  0
 27 28  4  0
 28 29  1  0
 29 30  4  0
 30 31  4  0
 31 32  4  0
 32 33  4  0
 33 34  4  0
 34 35  4  0
 35 36  4  0
 36 37  4  0
 37 38  4  0
 38 39  4  0
 39 40  4  0
 40 41  4  0
 41 42  4  0
 42 43  4  0
 43 44  4  0
 44 45  4  0
 45 46  4  0
 46 47  4  0
 47 48  4  0
 48 49  4  0
 49 50  4  0
 28 51  4  0
 51 52  4  0
 52 53  4  0
 53 54  4  0
 54 55  4  0
 55 56  4  0
 56 57  4  0
 13 58  4  0
 58 59  4  0
 59 60  4  0
 60 61  4  0
 61 62  4  0
 62 63  4  0
 63 64  4  0
 64 65  4  0
 65 66  4  0
 66  1  4  0
 65  4  4  0
 63  6  4  0
 61  8  4  0
 59 10  4  0
 57 14  4  0
 57 18  4  0
 55 20  4  0
 53 22  4  0
 51 24  4  0
 50 29  4  0
 48 31  4  0
 46 33  4  0
 44 35  4  0
 42 37  4  0
  1 67  1  0
  2 68  1  0
  3 69  1  0
  7 70  1  0
  9 71  1  0
 11 72  1  0
 12 73  1  0
 15 74  1  0
 16 75  1  0
 17 76  1  0
 19 77  1  0
 21 78  1  0
 23 79  1  0
 25 80  1  0
 26 81  1  0
 27 82  1  0
 30 83  1  0
 32 84  1  0
 34 85  1  0
 36 86  1  0
 38 87  1  0
 39 88  1  0
 40 89  1  0
 41 90  1  0
 45 91  1  0
 47 92  1  0
 49 93  1  0
 50 94  1  0
 52 95  1  0
 54 96  1  0
 56 97  1  0
 58 98  1  0
 60 99  1  0
 62100  1  0
 64101  1  0
 66102  1  0
M  END
