
     RDKit          3D

102116  0  0  0  0  0  0  0  0999 V2000
    3.8674   -2.2528   -7.1489 C   0  0  0  0  0  0  0  0  0  0  0  0
    4.0038   -2.3464   -5.7630 C   0  0  0  0  0  0  0  0  0  0  0  0
    4.1743   -1.1940   -4.9780 C   0  0  0  0  0  0  0  0  0  0  0  0
    4.3126   -1.2718   -3.5823 C   0  0  0  0  0  0  0  0  0  0  0  0
    4.4829   -0.1177   -2.7994 C   0  0  0  0  0  0  0  0  0  0  0  0
    4.6211   -0.1882   -1.4061 C   0  0  0  0  0  0  0  0  0  0  0  0
    4.7889    0.9774   -0.6374 C   0  0  0  0  0  0  0  0  0  0  0  0
    4.9254    0.9317    0.7546 C   0  0  0  0  0  0  0  0  0  0  0  0
    5.0798    2.1109    1.5103 C   0  0  0  0  0  0  0  0  0  0  0  0
    5.2087    2.1357    2.9312 C   0  0  0  0  0  0  0  0  0  0  0  0
    5.1965    0.9053    3.7513 C   0  0  0  0  0  0  0  0  0  0  0  0
    6.4337    0.3833    4.1740 C   0  0  0  0  0  0  0  0  0  0  0  0
    6.4977   -0.7706    4.9465 C   0  0  0  0  0  0  0  0  0  0  0  0
    5.3240   -1.4233    5.3093 C   0  0  0  0  0  0  0  0  0  0  0  0
    4.0719   -0.9344    4.9079 C   0  0  0  0  0  0  0  0  0  0  0  0
    2.9006   -1.6128    5.2837 C   0  0  0  0  0  0  0  0  0  0  0  0
    1.6299   -1.1590    4.8991 C   0  0  0  0  0  0  0  0  0  0  0  0
    0.4619   -1.8435    5.2746 C   0  0  0  0  0  0  0  0  0  0  0  0
   -0.8097   -1.3901    4.8849 C   0  0  0  0  0  0  0  0  0  0  0  0
   -1.9764   -2.0737    5.2585 C   0  0  0  0  0  0  0  0  0  0  0  0
   -3.2507   -1.6260    4.8720 C   0  0  0  0  0  0  0  0  0  0  0  0
   -4.3933   -2.3387    5.2655 C   0  0  0  0  0  0  0  0  0  0  0  0
   -5.6655   -1.9135    4.8963 C   0  0  0  0  0  0  0  0  0  0  0  0
   -5.8112   -0.7657    4.1262 C   0  0  0  0  0  0  0  0  0  0  0  0
   -4.6886   -0.0248    3.7100 C   0  0  0  0  0  0  0  0  0  0  0  0
   -4.9237    1.1849    2.8944 C   0  0  0  0  0  0  0  0  0  0  0  0
   -4.9925    1.1439    1.4704 C   0  0  0  0  0  0  0  0  0  0  0  0
   -4.8160   -0.0280    0.7087 C   0  0  0  0  0  0  0  0  0  0  0  0
   -4.8971   -0.0007   -0.6882 C   0  0  0  0  0  0  0  0  0  0  0  0
   -4.7217   -1.1593   -1.4657 C   0  0  0  0  0  0  0  0  0  0  0  0
   -4.8084   -1.1075   -2.8639 C   0  0  0  0  0  0  0  0  0  0  0  0
   -4.6359   -2.2552   -3.6555 C   0  0  0  0  0  0  0  0  0  0  0  0
   -4.7244   -2.1963   -5.0559 C   0  0  0  0  0  0  0  0  0  0  0  0
   -4.5525   -3.3423   -5.8495 C   0  0  0  0  0  0  0  0  0  0  0  0
   -4.6436   -3.2676   -7.2401 C   0  0  0  0  0  0  0  0  0  0  0  0
   -4.9073   -2.0475   -7.8548 C   0  0  0  0  0  0  0  0  0  0  0  0
   -5.0804   -0.8999   -7.0798 C   0  0  0  0  0  0  0  0  0  0  0  0
   -4.9917   -0.9586   -5.6792 C   0  0  0  0  0  0  0  0  0  0  0  0
   -5.1633    0.1874   -4.8852 C   0  0  0  0  0  0  0  0  0  0  0  0
   -5.0748    0.1272   -3.4843 C   0  0  0  0  0  0  0  0  0  0  0  0
   -5.2459    1.2727   -2.6866 C   0  0  0  0  0  0  0  0  0  0  0  0
   -5.1615    1.2319   -1.3016 C   0  0  0  0  0  0  0  0  0  0  0  0
   -5.3325    2.3624   -0.5966 N   0  0  0  0  0  0  0  0  0  0  0  0
   -5.2496    2.3254    0.7446 C   0  0  0  0  0  0  0  0  0  0  0  0
   -5.4249    3.5124    1.4399 C   0  0  0  0  0  0  0  0  0  0  0  0
   -5.3537    3.5705    2.8311 C   0  0  0  0  0  0  0  0  0  0  0  0
   -5.1068    2.4109    3.5544 C   0  0  0  0  0  0  0  0  0  0  0  0
   -3.3822   -0.4561    4.0859 C   0  0  0  0  0  0  0  0  0  0  0  0
   -2.1944    0.2208    3.7157 C   0  0  0  0  0  0  0  0  0  0  0  0
   -0.9179   -0.2274    4.1034 C   0  0  0  0  0  0  0  0  0  0  0  0
    0.2522    0.4577    3.7303 C   0  0  0  0  0  0  0  0  0  0  0  0
    1.5255    0.0057    4.1204 C   0  0  0  0  0  0  0  0  0  0  0  0
    2.6984    0.6886    3.7499 C   0  0  0  0  0  0  0  0  0  0  0  0
    3.9895    0.2412    4.1236 C   0  0  0  0  0  0  0  0  0  0  0  0
    5.3657    3.3703    3.5826 C   0  0  0  0  0  0  0  0  0  0  0  0
    5.3903    4.5536    2.8561 C   0  0  0  0  0  0  0  0  0  0  0  0
    5.2567    4.5122    1.4692 C   0  0  0  0  0  0  0  0  0  0  0  0
    5.1011    3.3180    0.7816 C   0  0  0  0  0  0  0  0  0  0  0  0
    4.9769    3.3730   -0.5560 N   0  0  0  0  0  0  0  0  0  0  0  0
    4.8213    2.2358   -1.2539 C   0  0  0  0  0  0  0  0  0  0  0  0
    4.6848    2.2949   -2.6342 C   0  0  0  0  0  0  0  0  0  0  0  0
    4.5155    1.1431   -3.4237 C   0  0  0  0  0  0  0  0  0  0  0  0
    4.3771    1.2222   -4.8198 C   0  0  0  0  0  0  0  0  0  0  0  0
    4.2069    0.0699   -5.6053 C   0  0  0  0  0  0  0  0  0  0  0  0
    4.0682    0.1475   -7.0011 C   0  0  0  0  0  0  0  0  0  0  0  0
    3.8996   -1.0069   -7.7675 C   0  0  0  0  0  0  0  0  0  0  0  0
    3.7360   -3.1528   -7.7439 H   0  0  0  0  0  0  0  0  0  0  0  0
    3.9759   -3.3291   -5.2978 H   0  0  0  0  0  0  0  0  0  0  0  0
    4.2867   -2.2465   -3.0982 H   0  0  0  0  0  0  0  0  0  0  0  0
    4.5953   -1.1571   -0.9106 H   0  0  0  0  0  0  0  0  0  0  0  0
    4.9053   -0.0348    1.2539 H   0  0  0  0  0  0  0  0  0  0  0  0
    7.3597    0.8825    3.8926 H   0  0  0  0  0  0  0  0  0  0  0  0
    7.4607   -1.1615    5.2644 H   0  0  0  0  0  0  0  0  0  0  0  0
    5.3954   -2.3258    5.9134 H   0  0  0  0  0  0  0  0  0  0  0  0
    2.9791   -2.5153    5.8882 H   0  0  0  0  0  0  0  0  0  0  0  0
    0.5442   -2.7446    5.8805 H   0  0  0  0  0  0  0  0  0  0  0  0
   -1.8900   -2.9740    5.8653 H   0  0  0  0  0  0  0  0  0  0  0  0
   -4.3001   -3.2391    5.8697 H   0  0  0  0  0  0  0  0  0  0  0  0
   -6.5416   -2.4752    5.2096 H   0  0  0  0  0  0  0  0  0  0  0  0
   -6.8118   -0.4422    3.8431 H   0  0  0  0  0  0  0  0  0  0  0  0
   -4.6095   -0.9733    1.2065 H   0  0  0  0  0  0  0  0  0  0  0  0
   -4.5155   -2.1081   -0.9739 H   0  0  0  0  0  0  0  0  0  0  0  0
   -4.4293   -3.2098   -3.1750 H   0  0  0  0  0  0  0  0  0  0  0  0
   -4.3456   -4.3051   -5.3876 H   0  0  0  0  0  0  0  0  0  0  0  0
   -4.5084   -4.1624   -7.8418 H   0  0  0  0  0  0  0  0  0  0  0  0
   -4.9786   -1.9873   -8.9377 H   0  0  0  0  0  0  0  0  0  0  0  0
   -5.2857    0.0448   -7.5785 H   0  0  0  0  0  0  0  0  0  0  0  0
   -5.3692    1.1425   -5.3657 H   0  0  0  0  0  0  0  0  0  0  0  0
   -5.4516    2.2336   -3.1540 H   0  0  0  0  0  0  0  0  0  0  0  0
   -5.6233    4.4228    0.8781 H   0  0  0  0  0  0  0  0  0  0  0  0
   -5.4932    4.5181    3.3443 H   0  0  0  0  0  0  0  0  0  0  0  0
   -5.0563    2.4597    4.6409 H   0  0  0  0  0  0  0  0  0  0  0  0
   -2.2621    1.1224    3.1083 H   0  0  0  0  0  0  0  0  0  0  0  0
    0.1708    1.3589    3.1238 H   0  0  0  0  0  0  0  0  0  0  0  0
    2.5999    1.5926    3.1506 H   0  0  0  0  0  0  0  0  0  0  0  0
    5.4669    3.4080    4.6661 H   0  0  0  0  0  0  0  0  0  0  0  0
    5.5117    5.5070    3.3635 H   0  0  0  0  0  0  0  0  0  0  0  0
    5.2750    5.4419    0.9045 H   0  0  0  0  0  0  0  0  0  0  0  0
    4.7110    3.2758   -3.1046 H   0  0  0  0  0  0  0  0  0  0  0  0
    4.4019    2.1974   -5.3033 H   0  0  0  0  0  0  0  0  0  0  0  0
    4.0905    1.1122   -7.5033 H   0  0  0  0  0  0  0  0  0  0  0  0
    3.7933   -0.9315   -8.8466 H   0  0  0  0  0  0  0  0  0  0  0  0
  1  2  4  0
  2  3  4  0
  3  4  4  0
  4  5  4  0
  5  6  4  0
  6  7  4  0
  7  8  4  0
  8  9  4  0
  9 10  4  0
 10 11  1  0
 11 12  4  0
 12 13  4  0
 13 14  4  0
 14 15  4  0
 15 16  4  0
 16 17  4  0
 17 18  4  0
 18 19  4  0
 19 20  4  0
 20 21  4  0
 21 22  4  0
 22 23  4  0
 23 24  4  0
 24 25  4  0
 25 26  1  0
 26 27  4  0
 27 28  4  0
 28 29  4  0
 29 30  4  0
 30 31  4  0
 31 32  4  0
 32 33  4  0
 33 34  4  0
 34 35  4  0
 35 36  4  0
 36 37  4  0
 37 38  4  0
 38 39  4  0
 39 40  4  0
 40 41  4  0
 41 42  4  0
 42 43  4  0
 43 44  4  0
 44 45  4  0
 45 46  4  0
 46 47  4  0
 25 48  4  0
 48 49  4  0
 49 50  4  0
 50 51  4  0
 51 52  4  0
 52 53  4  0
 53 54  4  0
 10 55  4  0
 55 56  4  0
 56 57  4  0
 57 58  4  0
 58 59  4  0
 59 60  4  0
 60 61  4  0
 61 62  4  0
 62 63  4  0
 63 64  4  0
 64 65  4  0
 65 66  4  0
 66  1  4  0
 64  3  4  0
 62  5  4  0
 60  7  4  0
 58  9  4  0
 54 11  4  0
 54 15  4  0
 52 17  4  0
 50 19  4  0
 48 21  4  0
 47 26  4  0
 44 27  4  0
 42 29  4  0
 40 31  4  0
 38 33  4  0
  1 67  1  0
  2 68  1  0
  4 69  1  0
  6 70  1  0
  8 71  1  0
 12 72  1  0
 13 73  1  0
 14 74  1  0
 16 75  1  0
 18 76  1  0
 20 77  1  0
 22 78  1  0
 23 79  1  0
 24 80  1  0
 28 81  1  0
 30 82  1  0
 32 83  1  0
 34 84  1  0
 35 85  1  0
 36 86  1  0
 37 87  1  0
 39 88  1  0
 41 89  1  0
 45 90  1  0
 46 91  1  0
 47 92  1  0
 49 93  1  0
 51 94  1  0
 53 95  1  0
 55 96  1  0
 56 97  1  0
 57 98  1  0
 61 99  1  0
 63100  1  0
 65101  1  0
 66102  1  0
M  END
