
     RDKit          3D

102116  0  0  0  0  0  0  0  0999 V2000
  -10.6254   -1.6432    4.1626 C   0  0  0  0  0  0  0  0  0  0  0  0
  -10.0530   -2.1930    3.0144 C   0  0  0  0  0  0  0  0  0  0  0  0
   -9.1986   -1.4300    2.2014 C   0  0  0  0  0  0  0  0  0  0  0  0
   -8.6138   -1.9684    1.0430 C   0  0  0  0  0  0  0  0  0  0  0  0
   -7.7590   -1.2024    0.2320 C   0  0  0  0  0  0  0  0  0  0  0  0
   -7.1689   -1.7323   -0.9249 C   0  0  0  0  0  0  0  0  0  0  0  0
   -6.3149   -0.9495   -1.7235 C   0  0  0  0  0  0  0  0  0  0  0  0
   -5.7094   -1.4527   -2.8790 C   0  0  0  0  0  0  0  0  0  0  0  0
   -4.8622   -0.6434   -3.6451 C   0  0  0  0  0  0  0  0  0  0  0  0
   -4.2463   -1.1439   -4.8043 C   0  0  0  0  0  0  0  0  0  0  0  0
   -3.4039   -0.3370   -5.5591 C   0  0  0  0  0  0  0  0  0  0  0  0
   -3.1744    0.9732   -5.1570 C   0  0  0  0  0  0  0  0  0  0  0  0
   -3.7839    1.4919   -3.9960 C   0  0  0  0  0  0  0  0  0  0  0  0
   -3.5059    2.8969   -3.6222 C   0  0  0  0  0  0  0  0  0  0  0  0
   -4.2089    3.9125   -4.2982 C   0  0  0  0  0  0  0  0  0  0  0  0
   -3.9849    5.2541   -4.0096 C   0  0  0  0  0  0  0  0  0  0  0  0
   -3.0515    5.6043   -3.0391 C   0  0  0  0  0  0  0  0  0  0  0  0
   -2.3316    4.6224   -2.3421 C   0  0  0  0  0  0  0  0  0  0  0  0
   -1.3943    4.9991   -1.3648 C   0  0  0  0  0  0  0  0  0  0  0  0
   -0.6572    4.0472   -0.6435 C   0  0  0  0  0  0  0  0  0  0  0  0
    0.2775    4.4257    0.3357 C   0  0  0  0  0  0  0  0  0  0  0  0
    1.0102    3.4686    1.0588 C   0  0  0  0  0  0  0  0  0  0  0  0
    1.9461    3.8420    2.0356 C   0  0  0  0  0  0  0  0  0  0  0  0
    2.6787    2.8867    2.7610 C   0  0  0  0  0  0  0  0  0  0  0  0
    3.6104    3.3001    3.7250 C   0  0  0  0  0  0  0  0  0  0  0  0
    4.3486    2.3712    4.4518 C   0  0  0  0  0  0  0  0  0  0  0  0
    4.1575    1.0122    4.2288 C   0  0  0  0  0  0  0  0  0  0  0  0
    3.2279    0.5568    3.2749 C   0  0  0  0  0  0  0  0  0  0  0  0
    3.0501   -0.9038    3.1153 C   0  0  0  0  0  0  0  0  0  0  0  0
    3.9483   -1.6702    2.3477 C   0  0  0  0  0  0  0  0  0  0  0  0
    5.0057   -1.0983    1.7284 N   0  0  0  0  0  0  0  0  0  0  0  0
    5.8521   -1.8433    0.9990 C   0  0  0  0  0  0  0  0  0  0  0  0
    6.9311   -1.2324    0.3757 C   0  0  0  0  0  0  0  0  0  0  0  0
    7.8578   -1.9524   -0.3991 C   0  0  0  0  0  0  0  0  0  0  0  0
    8.9465   -1.3176   -1.0204 C   0  0  0  0  0  0  0  0  0  0  0  0
    9.8711   -2.0395   -1.7930 C   0  0  0  0  0  0  0  0  0  0  0  0
   10.9605   -1.4062   -2.4135 C   0  0  0  0  0  0  0  0  0  0  0  0
   11.8706   -2.1376   -3.1780 C   0  0  0  0  0  0  0  0  0  0  0  0
   11.7037   -3.5103   -3.3324 C   0  0  0  0  0  0  0  0  0  0  0  0
   10.6262   -4.1539   -2.7221 C   0  0  0  0  0  0  0  0  0  0  0  0
    9.7019   -3.4319   -1.9491 C   0  0  0  0  0  0  0  0  0  0  0  0
    8.6130   -4.0653   -1.3278 C   0  0  0  0  0  0  0  0  0  0  0  0
    7.6901   -3.3410   -0.5545 C   0  0  0  0  0  0  0  0  0  0  0  0
    6.6019   -3.9671    0.0701 C   0  0  0  0  0  0  0  0  0  0  0  0
    5.6888   -3.2266    0.8424 C   0  0  0  0  0  0  0  0  0  0  0  0
    4.5980   -3.8266    1.4785 C   0  0  0  0  0  0  0  0  0  0  0  0
    3.7123   -3.0575    2.2417 C   0  0  0  0  0  0  0  0  0  0  0  0
    2.6165   -3.6553    2.8865 C   0  0  0  0  0  0  0  0  0  0  0  0
    1.7420   -2.8889    3.6464 C   0  0  0  0  0  0  0  0  0  0  0  0
    1.9588   -1.5215    3.7614 C   0  0  0  0  0  0  0  0  0  0  0  0
    2.4784    1.5062    2.5183 C   0  0  0  0  0  0  0  0  0  0  0  0
    1.5366    1.1482    1.5235 C   0  0  0  0  0  0  0  0  0  0  0  0
    0.8038    2.1040    0.7974 C   0  0  0  0  0  0  0  0  0  0  0  0
   -0.1293    1.7267   -0.1834 C   0  0  0  0  0  0  0  0  0  0  0  0
   -0.8616    2.6830   -0.9074 C   0  0  0  0  0  0  0  0  0  0  0  0
   -1.7960    2.3065   -1.8884 C   0  0  0  0  0  0  0  0  0  0  0  0
   -2.5504    3.2521   -2.6239 C   0  0  0  0  0  0  0  0  0  0  0  0
   -4.6418    0.6849   -3.2235 C   0  0  0  0  0  0  0  0  0  0  0  0
   -5.2346    1.1639   -2.1072 N   0  0  0  0  0  0  0  0  0  0  0  0
   -6.0415    0.3801   -1.3746 C   0  0  0  0  0  0  0  0  0  0  0  0
   -6.6290    0.8953   -0.2282 C   0  0  0  0  0  0  0  0  0  0  0  0
   -7.4836    0.1316    0.5859 C   0  0  0  0  0  0  0  0  0  0  0  0
   -8.0672    0.6710    1.7442 C   0  0  0  0  0  0  0  0  0  0  0  0
   -8.9211   -0.0925    2.5567 C   0  0  0  0  0  0  0  0  0  0  0  0
   -9.5046    0.4463    3.7151 C   0  0  0  0  0  0  0  0  0  0  0  0
  -10.3514   -0.3247    4.5126 C   0  0  0  0  0  0  0  0  0  0  0  0
  -11.2847   -2.2452    4.7825 H   0  0  0  0  0  0  0  0  0  0  0  0
  -10.2796   -3.2255    2.7582 H   0  0  0  0  0  0  0  0  0  0  0  0
   -8.8281   -3.0001    0.7699 H   0  0  0  0  0  0  0  0  0  0  0  0
   -7.3729   -2.7628   -1.2085 H   0  0  0  0  0  0  0  0  0  0  0  0
   -5.8971   -2.4803   -3.1817 H   0  0  0  0  0  0  0  0  0  0  0  0
   -4.4208   -2.1688   -5.1250 H   0  0  0  0  0  0  0  0  0  0  0  0
   -2.9281   -0.7253   -6.4558 H   0  0  0  0  0  0  0  0  0  0  0  0
   -2.5124    1.6042   -5.7481 H   0  0  0  0  0  0  0  0  0  0  0  0
   -4.9477    3.6507   -5.0533 H   0  0  0  0  0  0  0  0  0  0  0  0
   -4.5403    6.0250   -4.5366 H   0  0  0  0  0  0  0  0  0  0  0  0
   -2.8929    6.6594   -2.8260 H   0  0  0  0  0  0  0  0  0  0  0  0
   -1.2360    6.0562   -1.1587 H   0  0  0  0  0  0  0  0  0  0  0  0
    0.4374    5.4829    0.5383 H   0  0  0  0  0  0  0  0  0  0  0  0
    2.1093    4.9001    2.2340 H   0  0  0  0  0  0  0  0  0  0  0  0
    3.7744    4.3588    3.9145 H   0  0  0  0  0  0  0  0  0  0  0  0
    5.0734    2.7050    5.1890 H   0  0  0  0  0  0  0  0  0  0  0  0
    4.7438    0.2943    4.7993 H   0  0  0  0  0  0  0  0  0  0  0  0
    7.0472   -0.1577    0.5034 H   0  0  0  0  0  0  0  0  0  0  0  0
    9.0759   -0.2431   -0.9002 H   0  0  0  0  0  0  0  0  0  0  0  0
   11.1084   -0.3340   -2.3050 H   0  0  0  0  0  0  0  0  0  0  0  0
   12.7088   -1.6339   -3.6520 H   0  0  0  0  0  0  0  0  0  0  0  0
   12.4113   -4.0813   -3.9277 H   0  0  0  0  0  0  0  0  0  0  0  0
   10.5121   -5.2275   -2.8545 H   0  0  0  0  0  0  0  0  0  0  0  0
    8.4826   -5.1391   -1.4487 H   0  0  0  0  0  0  0  0  0  0  0  0
    6.4622   -5.0404   -0.0428 H   0  0  0  0  0  0  0  0  0  0  0  0
    4.4393   -4.8981    1.3800 H   0  0  0  0  0  0  0  0  0  0  0  0
    2.4406   -4.7256    2.8010 H   0  0  0  0  0  0  0  0  0  0  0  0
    0.8964   -3.3529    4.1473 H   0  0  0  0  0  0  0  0  0  0  0  0
    1.2736   -0.9208    4.3578 H   0  0  0  0  0  0  0  0  0  0  0  0
    1.3733    0.0956    1.2984 H   0  0  0  0  0  0  0  0  0  0  0  0
   -0.2908    0.6693   -0.3862 H   0  0  0  0  0  0  0  0  0  0  0  0
   -1.9453    1.2448   -2.0757 H   0  0  0  0  0  0  0  0  0  0  0  0
   -6.4066    1.9282    0.0338 H   0  0  0  0  0  0  0  0  0  0  0  0
   -7.8510    1.7031    2.0167 H   0  0  0  0  0  0  0  0  0  0  0  0
   -9.3022    1.4751    4.0047 H   0  0  0  0  0  0  0  0  0  0  0  0
  -10.7961    0.1053    5.4063 H   0  0  0  0  0  0  0  0  0  0  0  0
  1  2  4  0
  2  3  4  0
  3  4  4  0
  4  5  4  0
  5  6  4  0
  6  7  4  0
  7  8  4  0
  8  9  4  0
  9 10  4  0
 10 11  4  0
 11 12  4  0
 12 13  4  0
 13 14  1  0
 14 15  4  0
 15 16  4  0
 16 17  4  0
 17 18  4  0
 18 19  4  0
 19 20  4  0
 20 21  4  0
 21 22  4  0
 22 23  4  0
 23 24  4  0
 24 25  4  0
 25 26  4  0
 26 27  4  0
 27 28  4  0
 28 29  1  0
 29 30  4  0
 30 31  4  0
 31 32  4  0
 32 33  4  0
 33 34  4  0
 34 35  4  0
 35 36  4  0
 36 37  4  0
 37 38  4  0
 38 39  4  0
 39 40  4  0
 40 41  4  0
 41 42  4  0
 42 43  4  0
 43 44  4  0
 44 45  4  0
 45 46  4  0
 46 47  4  0
 47 48  4  0
 48 49  4  0
 49 50  4  0
 28 51  4  0
 51 52  4  0
 52 53  4  0
 53 54  4  0
 54 55  4  0
 55 56  4  0
 56 57  4  0
 13 58  4  0
 58 59  4  0
 59 60  4  0
 60 61  4  0
 61 62  4  0
 62 63  4  0
 63 64  4  0
 64 65  4  0
 65 66  4  0
 66  1  4  0
 64  3  4  0
 62  5  4  0
 60  7  4  0
 58  9  4  0
 57 14  4  0
 57 18  4  0
 55 20  4  0
 53 22  4  0
 51 24  4  0
 50 29  4  0
 47 30  4  0
 45 32  4  0
 43 34  4  0
 41 36  4  0
  1 67  1  0
  2 68  1  0
  4 69  1  0
  6 70  1  0
  8 71  1  0
 10 72  1  0
 11 73  1  0
 12 74  1  0
 15 75  1  0
 16 76  1  0
 17 77  1  0
 19 78  1  0
 21 79  1  0
 23 80  1  0
 25 81  1  0
 26 82  1  0
 27 83  1  0
 33 84  1  0
 35 85  1  0
 37 86  1  0
 38 87  1  0
 39 88  1  0
 40 89  1  0
 42 90  1  0
 44 91  1  0
 46 92  1  0
 48 93  1  0
 49 94  1  0
 50 95  1  0
 52 96  1  0
 54 97  1  0
 56 98  1  0
 61 99  1  0
 63100  1  0
 65101  1  0
 66102  1  0
M  END
