
     RDKit          3D

102116  0  0  0  0  0  0  0  0999 V2000
    5.4290   -4.4042   -3.7254 C   0  0  0  0  0  0  0  0  0  0  0  0
    5.2320   -4.9749   -2.4780 C   0  0  0  0  0  0  0  0  0  0  0  0
    5.1011   -4.1503   -1.3618 C   0  0  0  0  0  0  0  0  0  0  0  0
    5.1647   -2.7366   -1.4728 C   0  0  0  0  0  0  0  0  0  0  0  0
    5.3599   -2.1736   -2.7467 C   0  0  0  0  0  0  0  0  0  0  0  0
    5.4898   -3.0147   -3.8444 C   0  0  0  0  0  0  0  0  0  0  0  0
    5.4248   -0.8525   -2.9588 N   0  0  0  0  0  0  0  0  0  0  0  0
    5.2951   -0.0059   -1.9291 C   0  0  0  0  0  0  0  0  0  0  0  0
    5.3552    1.3547   -2.1991 C   0  0  0  0  0  0  0  0  0  0  0  0
    5.2203    2.3314   -1.1991 C   0  0  0  0  0  0  0  0  0  0  0  0
    5.2769    3.7044   -1.4941 C   0  0  0  0  0  0  0  0  0  0  0  0
    5.1340    4.6749   -0.4886 C   0  0  0  0  0  0  0  0  0  0  0  0
    5.1876    6.0478   -0.7807 C   0  0  0  0  0  0  0  0  0  0  0  0
    5.0411    6.9991    0.2300 C   0  0  0  0  0  0  0  0  0  0  0  0
    4.8390    6.5906    1.5447 C   0  0  0  0  0  0  0  0  0  0  0  0
    4.7837    5.2302    1.8510 C   0  0  0  0  0  0  0  0  0  0  0  0
    4.9300    4.2610    0.8450 C   0  0  0  0  0  0  0  0  0  0  0  0
    4.8766    2.8883    1.1366 C   0  0  0  0  0  0  0  0  0  0  0  0
    5.0203    1.9210    0.1276 C   0  0  0  0  0  0  0  0  0  0  0  0
    4.9660    0.5478    0.4089 C   0  0  0  0  0  0  0  0  0  0  0  0
    5.0985   -0.4346   -0.6062 C   0  0  0  0  0  0  0  0  0  0  0  0
    5.0375   -1.8385   -0.3756 C   0  0  0  0  0  0  0  0  0  0  0  0
    4.8431   -2.3628    0.9996 C   0  0  0  0  0  0  0  0  0  0  0  0
    5.9869   -2.6730    1.7595 C   0  0  0  0  0  0  0  0  0  0  0  0
    5.8714   -3.1702    3.0523 C   0  0  0  0  0  0  0  0  0  0  0  0
    4.6100   -3.3647    3.6075 C   0  0  0  0  0  0  0  0  0  0  0  0
    3.4470   -3.0643    2.8822 C   0  0  0  0  0  0  0  0  0  0  0  0
    2.1825   -3.2651    3.4614 C   0  0  0  0  0  0  0  0  0  0  0  0
    0.9986   -2.9707    2.7675 C   0  0  0  0  0  0  0  0  0  0  0  0
   -0.2656   -3.1708    3.3482 C   0  0  0  0  0  0  0  0  0  0  0  0
   -1.4484   -2.8729    2.6501 C   0  0  0  0  0  0  0  0  0  0  0  0
   -2.7135   -3.0722    3.2248 C   0  0  0  0  0  0  0  0  0  0  0  0
   -3.8963   -2.7729    2.5273 C   0  0  0  0  0  0  0  0  0  0  0  0
   -5.1446   -2.9836    3.1326 C   0  0  0  0  0  0  0  0  0  0  0  0
   -6.3269   -2.6917    2.4585 C   0  0  0  0  0  0  0  0  0  0  0  0
   -6.2764   -2.1833    1.1657 C   0  0  0  0  0  0  0  0  0  0  0  0
   -5.0431   -1.9592    0.5251 C   0  0  0  0  0  0  0  0  0  0  0  0
   -5.0593   -1.4110   -0.8544 C   0  0  0  0  0  0  0  0  0  0  0  0
   -5.0183   -0.0032   -1.0663 C   0  0  0  0  0  0  0  0  0  0  0  0
   -4.9500    0.9602   -0.0265 C   0  0  0  0  0  0  0  0  0  0  0  0
   -4.9030    2.3375   -0.2892 C   0  0  0  0  0  0  0  0  0  0  0  0
   -4.8291    3.2861    0.7452 C   0  0  0  0  0  0  0  0  0  0  0  0
   -4.7822    4.6630    0.4717 C   0  0  0  0  0  0  0  0  0  0  0  0
   -4.7080    5.6139    1.5030 C   0  0  0  0  0  0  0  0  0  0  0  0
   -4.6622    6.9785    1.2139 C   0  0  0  0  0  0  0  0  0  0  0  0
   -4.6897    7.4098   -0.1087 C   0  0  0  0  0  0  0  0  0  0  0  0
   -4.7630    6.4771   -1.1445 C   0  0  0  0  0  0  0  0  0  0  0  0
   -4.8098    5.1004   -0.8698 C   0  0  0  0  0  0  0  0  0  0  0  0
   -4.8824    4.1487   -1.9004 C   0  0  0  0  0  0  0  0  0  0  0  0
   -4.9288    2.7717   -1.6231 C   0  0  0  0  0  0  0  0  0  0  0  0
   -4.9982    1.8142   -2.6480 C   0  0  0  0  0  0  0  0  0  0  0  0
   -5.0404    0.4497   -2.3954 C   0  0  0  0  0  0  0  0  0  0  0  0
   -5.0968   -0.3775   -3.4472 N   0  0  0  0  0  0  0  0  0  0  0  0
   -5.1303   -1.7022   -3.2519 C   0  0  0  0  0  0  0  0  0  0  0  0
   -5.1803   -2.5226   -4.3716 C   0  0  0  0  0  0  0  0  0  0  0  0
   -5.2111   -3.9144   -4.2703 C   0  0  0  0  0  0  0  0  0  0  0  0
   -5.1914   -4.5086   -3.0185 C   0  0  0  0  0  0  0  0  0  0  0  0
   -5.1435   -3.7049   -1.8805 C   0  0  0  0  0  0  0  0  0  0  0  0
   -5.1131   -2.2889   -1.9738 C   0  0  0  0  0  0  0  0  0  0  0  0
   -3.8292   -2.2569    1.2114 C   0  0  0  0  0  0  0  0  0  0  0  0
   -2.5464   -2.0626    0.6468 C   0  0  0  0  0  0  0  0  0  0  0  0
   -1.3640   -2.3622    1.3441 C   0  0  0  0  0  0  0  0  0  0  0  0
   -0.1006   -2.1622    0.7638 C   0  0  0  0  0  0  0  0  0  0  0  0
    1.0815   -2.4627    1.4604 C   0  0  0  0  0  0  0  0  0  0  0  0
    2.3457   -2.2658    0.8792 C   0  0  0  0  0  0  0  0  0  0  0  0
    3.5486   -2.5569    1.5652 C   0  0  0  0  0  0  0  0  0  0  0  0
    5.5331   -5.0309   -4.6069 H   0  0  0  0  0  0  0  0  0  0  0  0
    5.1778   -6.0548   -2.3687 H   0  0  0  0  0  0  0  0  0  0  0  0
    4.9419   -4.6233   -0.3946 H   0  0  0  0  0  0  0  0  0  0  0  0
    5.6415   -2.5725   -4.8268 H   0  0  0  0  0  0  0  0  0  0  0  0
    5.5085    1.6598   -3.2328 H   0  0  0  0  0  0  0  0  0  0  0  0
    5.4324    4.0226   -2.5237 H   0  0  0  0  0  0  0  0  0  0  0  0
    5.3434    6.3866   -1.8026 H   0  0  0  0  0  0  0  0  0  0  0  0
    5.0842    8.0581   -0.0107 H   0  0  0  0  0  0  0  0  0  0  0  0
    4.7236    7.3297    2.3331 H   0  0  0  0  0  0  0  0  0  0  0  0
    4.6237    4.9299    2.8842 H   0  0  0  0  0  0  0  0  0  0  0  0
    4.7172    2.5675    2.1647 H   0  0  0  0  0  0  0  0  0  0  0  0
    4.8095    0.2375    1.4410 H   0  0  0  0  0  0  0  0  0  0  0  0
    6.9789   -2.5250    1.3351 H   0  0  0  0  0  0  0  0  0  0  0  0
    6.7630   -3.4064    3.6273 H   0  0  0  0  0  0  0  0  0  0  0  0
    4.5418   -3.7552    4.6212 H   0  0  0  0  0  0  0  0  0  0  0  0
    2.1177   -3.6571    4.4751 H   0  0  0  0  0  0  0  0  0  0  0  0
   -0.3295   -3.5653    4.3604 H   0  0  0  0  0  0  0  0  0  0  0  0
   -2.7784   -3.4689    4.2370 H   0  0  0  0  0  0  0  0  0  0  0  0
   -5.2059   -3.3805    4.1442 H   0  0  0  0  0  0  0  0  0  0  0  0
   -7.2862   -2.8601    2.9411 H   0  0  0  0  0  0  0  0  0  0  0  0
   -7.2075   -1.9575    0.6480 H   0  0  0  0  0  0  0  0  0  0  0  0
   -4.9272    0.6308    1.0113 H   0  0  0  0  0  0  0  0  0  0  0  0
   -4.8060    2.9469    1.7795 H   0  0  0  0  0  0  0  0  0  0  0  0
   -4.6848    5.2961    2.5431 H   0  0  0  0  0  0  0  0  0  0  0  0
   -4.6046    7.7033    2.0218 H   0  0  0  0  0  0  0  0  0  0  0  0
   -4.6538    8.4720   -0.3361 H   0  0  0  0  0  0  0  0  0  0  0  0
   -4.7830    6.8339   -2.1719 H   0  0  0  0  0  0  0  0  0  0  0  0
   -4.9022    4.4848   -2.9358 H   0  0  0  0  0  0  0  0  0  0  0  0
   -5.0173    2.1381   -3.6873 H   0  0  0  0  0  0  0  0  0  0  0  0
   -5.1937   -2.0612   -5.3568 H   0  0  0  0  0  0  0  0  0  0  0  0
   -5.2481   -4.5246   -5.1687 H   0  0  0  0  0  0  0  0  0  0  0  0
   -5.2112   -5.5911   -2.9226 H   0  0  0  0  0  0  0  0  0  0  0  0
   -5.1246   -4.1962   -0.9095 H   0  0  0  0  0  0  0  0  0  0  0  0
   -2.4603   -1.6659   -0.3641 H   0  0  0  0  0  0  0  0  0  0  0  0
   -0.0360   -1.7650   -0.2486 H   0  0  0  0  0  0  0  0  0  0  0  0
    2.3893   -1.8721   -0.1355 H   0  0  0  0  0  0  0  0  0  0  0  0
  1  2  4  0
  2  3  4  0
  3  4  4  0
  4  5  4  0
  5  6  4  0
  5  7  4  0
  7  8  4  0
  8  9  4  0
  9 10  4  0
 10 11  4  0
 11 12  4  0
 12 13  4  0
 13 14  4  0
 14 15  4  0
 15 16  4  0
 16 17  4  0
 17 18  4  0
 18 19  4  0
 19 20  4  0
 20 21  4  0
 21 22  4  0
 22 23  1  0
 23 24  4  0
 24 25  4  0
 25 26  4  0
 26 27  4  0
 27 28  4  0
 28 29  4  0
 29 30  4  0
 30 31  4  0
 31 32  4  0
 32 33  4  0
 33 34  4  0
 34 35  4  0
 35 36  4  0
 36 37  4  0
 37 38  1  0
 38 39  4  0
 39 40  4  0
 40 41  4  0
 41 42  4  0
 42 43  4  0
 43 44  4  0
 44 45  4  0
 45 46  4  0
 46 47  4  0
 47 48  4  0
 48 49  4  0
 49 50  4  0
 50 51  4  0
 51 52  4  0
 52 53  4  0
 53 54  4  0
 54 55  4  0
 55 56  4  0
 56 57  4  0
 57 58  4  0
 58 59  4  0
 37 60  4  0
 60 61  4  0
 61 62  4  0
 62 63  4  0
 63 64  4  0
 64 65  4  0
 65 66  4  0
  6  1  4  0
 21  8  4  0
 66 23  4  0
 22  4  4  0
 66 27  4  0
 19 10  4  0
 64 29  4  0
 17 12  4  0
 62 31  4  0
 60 33  4  0
 59 38  4  0
 52 39  4  0
 59 54  4  0
 50 41  4  0
 48 43  4  0
  1 67  1  0
  2 68  1  0
  3 69  1  0
  6 70  1  0
  9 71  1  0
 11 72  1  0
 13 73  1  0
 14 74  1  0
 15 75  1  0
 16 76  1  0
 18 77  1  0
 20 78  1  0
 24 79  1  0
 25 80  1  0
 26 81  1  0
 28 82  1  0
 30 83  1  0
 32 84  1  0
 34 85  1  0
 35 86  1  0
 36 87  1  0
 40 88  1  0
 42 89  1  0
 44 90  1  0
 45 91  1  0
 46 92  1  0
 47 93  1  0
 49 94  1  0
 51 95  1  0
 55 96  1  0
 56 97  1  0
 57 98  1  0
 58 99  1  0
 61100  1  0
 63101  1  0
 65102  1  0
M  END
