
     RDKit          3D

 92106  0  0  0  0  0  0  0  0999 V2000
   -4.5056   -6.2611    2.5132 C   0  0  0  0  0  0  0  0  0  0  0  0
   -3.7313   -6.6689    1.4524 C   0  0  0  0  0  0  0  0  0  0  0  0
   -3.6573   -5.6877    0.4079 C   0  0  0  0  0  0  0  0  0  0  0  0
   -2.9807   -5.7085   -0.8323 C   0  0  0  0  0  0  0  0  0  0  0  0
   -3.0446   -4.6196   -1.7226 C   0  0  0  0  0  0  0  0  0  0  0  0
   -2.3607   -4.6833   -2.9424 C   0  0  0  0  0  0  0  0  0  0  0  0
   -2.3885   -3.6333   -3.8677 C   0  0  0  0  0  0  0  0  0  0  0  0
   -3.1208   -2.4674   -3.5788 C   0  0  0  0  0  0  0  0  0  0  0  0
   -3.1166   -1.4296   -4.5447 C   0  0  0  0  0  0  0  0  0  0  0  0
   -2.4076   -1.5686   -5.7549 C   0  0  0  0  0  0  0  0  0  0  0  0
   -2.2969   -0.4202   -7.0351 S   0  0  0  0  0  0  0  0  0  0  0  0
   -1.3037   -1.4457   -7.9678 C   0  0  0  0  0  0  0  0  0  0  0  0
   -1.0527   -2.6373   -7.3287 C   0  0  0  0  0  0  0  0  0  0  0  0
   -1.6860   -2.7233   -6.0436 C   0  0  0  0  0  0  0  0  0  0  0  0
   -1.6836   -3.7569   -5.0803 C   0  0  0  0  0  0  0  0  0  0  0  0
   -3.8280   -2.3860   -2.3348 C   0  0  0  0  0  0  0  0  0  0  0  0
   -4.6214   -1.1682   -2.0167 C   0  0  0  0  0  0  0  0  0  0  0  0
   -5.9694   -1.1318   -2.4225 C   0  0  0  0  0  0  0  0  0  0  0  0
   -6.7662   -0.0249   -2.1546 C   0  0  0  0  0  0  0  0  0  0  0  0
   -6.2287    1.0646   -1.4758 C   0  0  0  0  0  0  0  0  0  0  0  0
   -4.8900    1.0656   -1.0553 C   0  0  0  0  0  0  0  0  0  0  0  0
   -4.3673    2.1762   -0.3710 C   0  0  0  0  0  0  0  0  0  0  0  0
   -3.0333    2.2136    0.0634 C   0  0  0  0  0  0  0  0  0  0  0  0
   -2.5120    3.3264    0.7453 C   0  0  0  0  0  0  0  0  0  0  0  0
   -1.1751    3.3614    1.1772 C   0  0  0  0  0  0  0  0  0  0  0  0
   -0.6503    4.4720    1.8562 C   0  0  0  0  0  0  0  0  0  0  0  0
    0.6869    4.5101    2.2866 C   0  0  0  0  0  0  0  0  0  0  0  0
    1.1777    5.6385    2.9611 C   0  0  0  0  0  0  0  0  0  0  0  0
    2.4996    5.6976    3.3925 C   0  0  0  0  0  0  0  0  0  0  0  0
    3.3510    4.6251    3.1542 C   0  0  0  0  0  0  0  0  0  0  0  0
    2.8948    3.4748    2.4823 C   0  0  0  0  0  0  0  0  0  0  0  0
    3.8597    2.3647    2.2594 C   0  0  0  0  0  0  0  0  0  0  0  0
    4.6298    2.3271    1.0514 C   0  0  0  0  0  0  0  0  0  0  0  0
    4.5204    3.2995    0.0254 C   0  0  0  0  0  0  0  0  0  0  0  0
    5.2986    3.2078   -1.1458 C   0  0  0  0  0  0  0  0  0  0  0  0
    5.2931    4.2898   -2.4872 S   0  0  0  0  0  0  0  0  0  0  0  0
    6.4758    3.3836   -3.3164 C   0  0  0  0  0  0  0  0  0  0  0  0
    6.8741    2.2806   -2.5980 C   0  0  0  0  0  0  0  0  0  0  0  0
    6.2009    2.1654   -1.3361 C   0  0  0  0  0  0  0  0  0  0  0  0
    6.3149    1.1968   -0.3136 C   0  0  0  0  0  0  0  0  0  0  0  0
    5.5422    1.2737    0.8610 C   0  0  0  0  0  0  0  0  0  0  0  0
    5.6838    0.2907    1.8479 C   0  0  0  0  0  0  0  0  0  0  0  0
    4.9388    0.3120    3.0331 C   0  0  0  0  0  0  0  0  0  0  0  0
    4.0135    1.3476    3.2571 C   0  0  0  0  0  0  0  0  0  0  0  0
    3.2765    1.3238    4.4681 C   0  0  0  0  0  0  0  0  0  0  0  0
    3.4723    0.2991    5.4156 C   0  0  0  0  0  0  0  0  0  0  0  0
    2.6722    0.1151    6.9310 S   0  0  0  0  0  0  0  0  0  0  0  0
    3.5379   -1.3074    7.2983 C   0  0  0  0  0  0  0  0  0  0  0  0
    4.4174   -1.6460    6.2966 C   0  0  0  0  0  0  0  0  0  0  0  0
    4.3907   -0.7237    5.1974 C   0  0  0  0  0  0  0  0  0  0  0  0
    5.1233   -0.7051    3.9893 C   0  0  0  0  0  0  0  0  0  0  0  0
    1.5409    3.4094    2.0385 C   0  0  0  0  0  0  0  0  0  0  0  0
    0.9954    2.2967    1.3550 C   0  0  0  0  0  0  0  0  0  0  0  0
   -0.3419    2.2594    0.9231 C   0  0  0  0  0  0  0  0  0  0  0  0
   -0.8641    1.1465    0.2421 C   0  0  0  0  0  0  0  0  0  0  0  0
   -2.2004    1.1113   -0.1916 C   0  0  0  0  0  0  0  0  0  0  0  0
   -2.7237   -0.0003   -0.8753 C   0  0  0  0  0  0  0  0  0  0  0  0
   -4.0658   -0.0537   -1.3211 C   0  0  0  0  0  0  0  0  0  0  0  0
   -3.7894   -3.4710   -1.3992 C   0  0  0  0  0  0  0  0  0  0  0  0
   -4.4656   -3.4523   -0.1531 C   0  0  0  0  0  0  0  0  0  0  0  0
   -4.3934   -4.5505    0.7271 C   0  0  0  0  0  0  0  0  0  0  0  0
   -5.1482   -4.7006    2.2691 S   0  0  0  0  0  0  0  0  0  0  0  0
   -4.7245   -6.8052    3.4217 H   0  0  0  0  0  0  0  0  0  0  0  0
   -3.2350   -7.6309    1.4196 H   0  0  0  0  0  0  0  0  0  0  0  0
   -2.4026   -6.5930   -1.0915 H   0  0  0  0  0  0  0  0  0  0  0  0
   -1.7896   -5.5806   -3.1803 H   0  0  0  0  0  0  0  0  0  0  0  0
   -3.6617   -0.5051   -4.3687 H   0  0  0  0  0  0  0  0  0  0  0  0
   -0.9510   -1.1271   -8.9390 H   0  0  0  0  0  0  0  0  0  0  0  0
   -0.4415   -3.4207   -7.7597 H   0  0  0  0  0  0  0  0  0  0  0  0
   -1.1217   -4.6634   -5.2956 H   0  0  0  0  0  0  0  0  0  0  0  0
   -6.3996   -1.9794   -2.9535 H   0  0  0  0  0  0  0  0  0  0  0  0
   -7.8050   -0.0109   -2.4739 H   0  0  0  0  0  0  0  0  0  0  0  0
   -6.8692    1.9213   -1.2758 H   0  0  0  0  0  0  0  0  0  0  0  0
   -5.0120    3.0310   -0.1729 H   0  0  0  0  0  0  0  0  0  0  0  0
   -3.1573    4.1806    0.9416 H   0  0  0  0  0  0  0  0  0  0  0  0
   -1.2973    5.3255    2.0528 H   0  0  0  0  0  0  0  0  0  0  0  0
    0.5267    6.4881    3.1568 H   0  0  0  0  0  0  0  0  0  0  0  0
    2.8653    6.5788    3.9129 H   0  0  0  0  0  0  0  0  0  0  0  0
    4.3837    4.6814    3.4945 H   0  0  0  0  0  0  0  0  0  0  0  0
    3.8292    4.1336    0.1218 H   0  0  0  0  0  0  0  0  0  0  0  0
    6.8226    3.7012   -4.2901 H   0  0  0  0  0  0  0  0  0  0  0  0
    7.6172    1.5794   -2.9567 H   0  0  0  0  0  0  0  0  0  0  0  0
    7.0177    0.3780   -0.4525 H   0  0  0  0  0  0  0  0  0  0  0  0
    6.3962   -0.5184    1.6876 H   0  0  0  0  0  0  0  0  0  0  0  0
    2.5436    2.0968    4.6874 H   0  0  0  0  0  0  0  0  0  0  0  0
    3.3615   -1.8278    8.2296 H   0  0  0  0  0  0  0  0  0  0  0  0
    5.0580   -2.5179    6.3437 H   0  0  0  0  0  0  0  0  0  0  0  0
    5.8423   -1.5011    3.8079 H   0  0  0  0  0  0  0  0  0  0  0  0
    1.6267    1.4333    1.1492 H   0  0  0  0  0  0  0  0  0  0  0  0
   -0.2180    0.2923    0.0445 H   0  0  0  0  0  0  0  0  0  0  0  0
   -2.0641   -0.8461   -1.0644 H   0  0  0  0  0  0  0  0  0  0  0  0
   -5.0522   -2.5872    0.1476 H   0  0  0  0  0  0  0  0  0  0  0  0
  1  2  4  0
  2  3  4  0
  3  4  4  0
  4  5  4  0
  5  6  4  0
  6  7  4  0
  7  8  4  0
  8  9  4  0
  9 10  4  0
 10 11  4  0
 11 12  4  0
 12 13  4  0
 13 14  4  0
 14 15  4  0
  8 16  4  0
 16 17  1  0
 17 18  4  0
 18 19  4  0
 19 20  4  0
 20 21  4  0
 21 22  4  0
 22 23  4  0
 23 24  4  0
 24 25  4  0
 25 26  4  0
 26 27  4  0
 27 28  4  0
 28 29  4  0
 29 30  4  0
 30 31  4  0
 31 32  1  0
 32 33  4  0
 33 34  4  0
 34 35  4  0
 35 36  4  0
 36 37  4  0
 37 38  4  0
 38 39  4  0
 39 40  4  0
 40 41  4  0
 41 42  4  0
 42 43  4  0
 43 44  4  0
 44 45  4  0
 45 46  4  0
 46 47  4  0
 47 48  4  0
 48 49  4  0
 49 50  4  0
 50 51  4  0
 31 52  4  0
 52 53  4  0
 53 54  4  0
 54 55  4  0
 55 56  4  0
 56 57  4  0
 57 58  4  0
 16 59  4  0
 59 60  4  0
 60 61  4  0
 61 62  4  0
 62  1  4  0
 61  3  4  0
 59  5  4  0
 15  7  4  0
 58 17  4  0
 14 10  4  0
 58 21  4  0
 56 23  4  0
 54 25  4  0
 52 27  4  0
 44 32  4  0
 50 46  4  0
 41 33  4  0
 51 43  4  0
 39 35  4  0
  1 63  1  0
  2 64  1  0
  4 65  1  0
  6 66  1  0
  9 67  1  0
 12 68  1  0
 13 69  1  0
 15 70  1  0
 18 71  1  0
 19 72  1  0
 20 73  1  0
 22 74  1  0
 24 75  1  0
 26 76  1  0
 28 77  1  0
 29 78  1  0
 30 79  1  0
 34 80  1  0
 37 81  1  0
 38 82  1  0
 40 83  1  0
 42 84  1  0
 45 85  1  0
 48 86  1  0
 49 87  1  0
 51 88  1  0
 53 89  1  0
 55 90  1  0
 57 91  1  0
 60 92  1  0
M  END
