
     RDKit          3D

 92106  0  0  0  0  0  0  0  0999 V2000
    3.0392   -0.3251    8.0730 C   0  0  0  0  0  0  0  0  0  0  0  0
    3.6737    0.6541    7.3453 C   0  0  0  0  0  0  0  0  0  0  0  0
    3.9222    0.2660    5.9858 C   0  0  0  0  0  0  0  0  0  0  0  0
    4.5410    0.9702    4.9250 C   0  0  0  0  0  0  0  0  0  0  0  0
    4.6837    0.3889    3.6512 C   0  0  0  0  0  0  0  0  0  0  0  0
    4.2080   -0.9088    3.4231 C   0  0  0  0  0  0  0  0  0  0  0  0
    3.5891   -1.6209    4.4646 C   0  0  0  0  0  0  0  0  0  0  0  0
    3.4546   -1.0238    5.7335 C   0  0  0  0  0  0  0  0  0  0  0  0
    2.7344   -1.7175    7.1378 S   0  0  0  0  0  0  0  0  0  0  0  0
    4.3608   -1.4762    2.1457 C   0  0  0  0  0  0  0  0  0  0  0  0
    4.9767   -0.7902    1.0705 C   0  0  0  0  0  0  0  0  0  0  0  0
    5.4438    0.5129    1.3203 C   0  0  0  0  0  0  0  0  0  0  0  0
    5.2948    1.0833    2.5966 C   0  0  0  0  0  0  0  0  0  0  0  0
    6.0582    1.2466    0.2950 C   0  0  0  0  0  0  0  0  0  0  0  0
    6.2252    0.7113   -1.0016 C   0  0  0  0  0  0  0  0  0  0  0  0
    6.8189    1.3006   -2.1692 C   0  0  0  0  0  0  0  0  0  0  0  0
    6.7970    0.4664   -3.2593 C   0  0  0  0  0  0  0  0  0  0  0  0
    6.0695   -1.0279   -2.8985 S   0  0  0  0  0  0  0  0  0  0  0  0
    5.7623   -0.5831   -1.2478 C   0  0  0  0  0  0  0  0  0  0  0  0
    5.1341   -1.3593   -0.2314 C   0  0  0  0  0  0  0  0  0  0  0  0
    4.6669   -2.7245   -0.5565 C   0  0  0  0  0  0  0  0  0  0  0  0
    5.5735   -3.7908   -0.4061 C   0  0  0  0  0  0  0  0  0  0  0  0
    5.1957   -5.0967   -0.6967 C   0  0  0  0  0  0  0  0  0  0  0  0
    3.9033   -5.3590   -1.1414 C   0  0  0  0  0  0  0  0  0  0  0  0
    2.9701   -4.3233   -1.3009 C   0  0  0  0  0  0  0  0  0  0  0  0
    1.6689   -4.6088   -1.7490 C   0  0  0  0  0  0  0  0  0  0  0  0
    0.7088   -3.5988   -1.9170 C   0  0  0  0  0  0  0  0  0  0  0  0
   -0.5929   -3.8851   -2.3629 C   0  0  0  0  0  0  0  0  0  0  0  0
   -1.5517   -2.8703   -2.5261 C   0  0  0  0  0  0  0  0  0  0  0  0
   -2.8538   -3.1510   -2.9687 C   0  0  0  0  0  0  0  0  0  0  0  0
   -3.8137   -2.1371   -3.1303 C   0  0  0  0  0  0  0  0  0  0  0  0
   -5.1069   -2.4549   -3.5724 C   0  0  0  0  0  0  0  0  0  0  0  0
   -6.0710   -1.4650   -3.7385 C   0  0  0  0  0  0  0  0  0  0  0  0
   -5.7531   -0.1397   -3.4644 C   0  0  0  0  0  0  0  0  0  0  0  0
   -4.4665    0.2186   -3.0199 C   0  0  0  0  0  0  0  0  0  0  0  0
   -4.1940    1.6462   -2.7461 C   0  0  0  0  0  0  0  0  0  0  0  0
   -3.7065    2.4715   -3.7999 C   0  0  0  0  0  0  0  0  0  0  0  0
   -3.3663    2.0204   -5.4422 S   0  0  0  0  0  0  0  0  0  0  0  0
   -2.8648    3.5899   -5.8630 C   0  0  0  0  0  0  0  0  0  0  0  0
   -2.9462    4.4548   -4.8001 C   0  0  0  0  0  0  0  0  0  0  0  0
   -3.4289    3.8259   -3.6026 C   0  0  0  0  0  0  0  0  0  0  0  0
   -3.6458    4.3734   -2.3185 C   0  0  0  0  0  0  0  0  0  0  0  0
   -4.1242    3.5916   -1.2568 C   0  0  0  0  0  0  0  0  0  0  0  0
   -4.3239    4.1739    0.0070 C   0  0  0  0  0  0  0  0  0  0  0  0
   -4.7982    3.4304    1.0980 C   0  0  0  0  0  0  0  0  0  0  0  0
   -5.0780    2.0692    0.9210 C   0  0  0  0  0  0  0  0  0  0  0  0
   -5.5519    1.3052    2.0010 C   0  0  0  0  0  0  0  0  0  0  0  0
   -5.7450    1.9164    3.2552 C   0  0  0  0  0  0  0  0  0  0  0  0
   -6.3164    1.1679    4.6991 S   0  0  0  0  0  0  0  0  0  0  0  0
   -6.2077    2.6211    5.5840 C   0  0  0  0  0  0  0  0  0  0  0  0
   -5.7477    3.6608    4.8102 C   0  0  0  0  0  0  0  0  0  0  0  0
   -5.4745    3.2701    3.4563 C   0  0  0  0  0  0  0  0  0  0  0  0
   -4.9957    4.0245    2.3583 C   0  0  0  0  0  0  0  0  0  0  0  0
   -4.8769    1.4909   -0.3444 C   0  0  0  0  0  0  0  0  0  0  0  0
   -4.4016    2.2272   -1.4569 C   0  0  0  0  0  0  0  0  0  0  0  0
   -3.4762   -0.7925   -2.8464 C   0  0  0  0  0  0  0  0  0  0  0  0
   -2.1596   -0.5271   -2.4009 C   0  0  0  0  0  0  0  0  0  0  0  0
   -1.2003   -1.5411   -2.2387 C   0  0  0  0  0  0  0  0  0  0  0  0
    0.1015   -1.2551   -1.7954 C   0  0  0  0  0  0  0  0  0  0  0  0
    1.0596   -2.2691   -1.6308 C   0  0  0  0  0  0  0  0  0  0  0  0
    2.3614   -1.9829   -1.1856 C   0  0  0  0  0  0  0  0  0  0  0  0
    3.3409   -2.9889   -1.0095 C   0  0  0  0  0  0  0  0  0  0  0  0
    2.7395   -0.2895    9.1114 H   0  0  0  0  0  0  0  0  0  0  0  0
    3.9522    1.6132    7.7643 H   0  0  0  0  0  0  0  0  0  0  0  0
    4.9087    1.9768    5.1095 H   0  0  0  0  0  0  0  0  0  0  0  0
    3.2127   -2.6277    4.3011 H   0  0  0  0  0  0  0  0  0  0  0  0
    3.9833   -2.4862    1.9861 H   0  0  0  0  0  0  0  0  0  0  0  0
    5.6627    2.0930    2.7742 H   0  0  0  0  0  0  0  0  0  0  0  0
    6.4187    2.2550    0.4884 H   0  0  0  0  0  0  0  0  0  0  0  0
    7.2410    2.2976   -2.1984 H   0  0  0  0  0  0  0  0  0  0  0  0
    7.1740    0.6643   -4.2533 H   0  0  0  0  0  0  0  0  0  0  0  0
    6.5875   -3.5967   -0.0606 H   0  0  0  0  0  0  0  0  0  0  0  0
    5.9081   -5.9090   -0.5797 H   0  0  0  0  0  0  0  0  0  0  0  0
    3.6281   -6.3877   -1.3658 H   0  0  0  0  0  0  0  0  0  0  0  0
    1.3962   -5.6391   -1.9715 H   0  0  0  0  0  0  0  0  0  0  0  0
   -0.8651   -4.9148   -2.5860 H   0  0  0  0  0  0  0  0  0  0  0  0
   -3.1254   -4.1813   -3.1920 H   0  0  0  0  0  0  0  0  0  0  0  0
   -5.3747   -3.4859   -3.7945 H   0  0  0  0  0  0  0  0  0  0  0  0
   -7.0677   -1.7261   -4.0838 H   0  0  0  0  0  0  0  0  0  0  0  0
   -6.5139    0.6271   -3.6007 H   0  0  0  0  0  0  0  0  0  0  0  0
   -2.5337    3.8054   -6.8695 H   0  0  0  0  0  0  0  0  0  0  0  0
   -2.6708    5.5000   -4.8684 H   0  0  0  0  0  0  0  0  0  0  0  0
   -3.4308    5.4289   -2.1633 H   0  0  0  0  0  0  0  0  0  0  0  0
   -4.1044    5.2317    0.1461 H   0  0  0  0  0  0  0  0  0  0  0  0
   -5.7711    0.2474    1.8784 H   0  0  0  0  0  0  0  0  0  0  0  0
   -6.4854    2.6456    6.6288 H   0  0  0  0  0  0  0  0  0  0  0  0
   -5.6103    4.6647    5.1928 H   0  0  0  0  0  0  0  0  0  0  0  0
   -4.7807    5.0806    2.5034 H   0  0  0  0  0  0  0  0  0  0  0  0
   -5.0967    0.4300   -0.4629 H   0  0  0  0  0  0  0  0  0  0  0  0
   -1.8685    0.4969   -2.1710 H   0  0  0  0  0  0  0  0  0  0  0  0
    0.3739   -0.2244   -1.5733 H   0  0  0  0  0  0  0  0  0  0  0  0
    2.6148   -0.9457   -0.9711 H   0  0  0  0  0  0  0  0  0  0  0  0
  1  2  4  0
  2  3  4  0
  3  4  4  0
  4  5  4  0
  5  6  4  0
  6  7  4  0
  7  8  4  0
  8  9  4  0
  6 10  4  0
 10 11  4  0
 11 12  4  0
 12 13  4  0
 12 14  4  0
 14 15  4  0
 15 16  4  0
 16 17  4  0
 17 18  4  0
 18 19  4  0
 19 20  4  0
 20 21  1  0
 21 22  4  0
 22 23  4  0
 23 24  4  0
 24 25  4  0
 25 26  4  0
 26 27  4  0
 27 28  4  0
 28 29  4  0
 29 30  4  0
 30 31  4  0
 31 32  4  0
 32 33  4  0
 33 34  4  0
 34 35  4  0
 35 36  1  0
 36 37  4  0
 37 38  4  0
 38 39  4  0
 39 40  4  0
 40 41  4  0
 41 42  4  0
 42 43  4  0
 43 44  4  0
 44 45  4  0
 45 46  4  0
 46 47  4  0
 47 48  4  0
 48 49  4  0
 49 50  4  0
 50 51  4  0
 51 52  4  0
 52 53  4  0
 46 54  4  0
 54 55  4  0
 35 56  4  0
 56 57  4  0
 57 58  4  0
 58 59  4  0
 59 60  4  0
 60 61  4  0
 61 62  4  0
  9  1  4  0
 20 11  4  0
 62 21  4  0
  8  3  4  0
 19 15  4  0
 62 25  4  0
 13  5  4  0
 60 27  4  0
 58 29  4  0
 56 31  4  0
 55 36  4  0
 41 37  4  0
 55 43  4  0
 53 45  4  0
 52 48  4  0
  1 63  1  0
  2 64  1  0
  4 65  1  0
  7 66  1  0
 10 67  1  0
 13 68  1  0
 14 69  1  0
 16 70  1  0
 17 71  1  0
 22 72  1  0
 23 73  1  0
 24 74  1  0
 26 75  1  0
 28 76  1  0
 30 77  1  0
 32 78  1  0
 33 79  1  0
 34 80  1  0
 39 81  1  0
 40 82  1  0
 42 83  1  0
 44 84  1  0
 47 85  1  0
 50 86  1  0
 51 87  1  0
 53 88  1  0
 54 89  1  0
 57 90  1  0
 59 91  1  0
 61 92  1  0
M  END
