
     RDKit          3D

 86 98  0  0  0  0  0  0  0  0999 V2000
    3.0706   -5.9986   -3.3791 C   0  0  0  0  0  0  0  0  0  0  0  0
    3.5311   -4.7544   -3.8123 C   0  0  0  0  0  0  0  0  0  0  0  0
    3.8003   -3.7263   -2.8935 C   0  0  0  0  0  0  0  0  0  0  0  0
    4.2634   -2.4700   -3.3191 C   0  0  0  0  0  0  0  0  0  0  0  0
    4.5348   -1.4352   -2.4147 C   0  0  0  0  0  0  0  0  0  0  0  0
    4.9970   -0.1960   -2.9253 C   0  0  0  0  0  0  0  0  0  0  0  0
    5.2258    0.7508   -1.9282 C   0  0  0  0  0  0  0  0  0  0  0  0
    5.6710    2.0200   -2.1973 C   0  0  0  0  0  0  0  0  0  0  0  0
    5.8423    2.9353   -0.7535 S   0  0  0  0  0  0  0  0  0  0  0  0
    5.3131    1.6265    0.2396 C   0  0  0  0  0  0  0  0  0  0  0  0
    5.2285    1.8352    1.6913 C   0  0  0  0  0  0  0  0  0  0  0  0
    6.4171    1.7625    2.4363 C   0  0  0  0  0  0  0  0  0  0  0  0
    6.3981    1.9312    3.8160 C   0  0  0  0  0  0  0  0  0  0  0  0
    5.1902    2.1701    4.4663 C   0  0  0  0  0  0  0  0  0  0  0  0
    3.9848    2.2451    3.7506 C   0  0  0  0  0  0  0  0  0  0  0  0
    2.7760    2.4835    4.4271 C   0  0  0  0  0  0  0  0  0  0  0  0
    1.5518    2.5634    3.7452 C   0  0  0  0  0  0  0  0  0  0  0  0
    0.3434    2.7988    4.4234 C   0  0  0  0  0  0  0  0  0  0  0  0
   -0.8800    2.8753    3.7359 C   0  0  0  0  0  0  0  0  0  0  0  0
   -2.0896    3.1078    4.4088 C   0  0  0  0  0  0  0  0  0  0  0  0
   -3.3144    3.1784    3.7231 C   0  0  0  0  0  0  0  0  0  0  0  0
   -4.5051    3.4089    4.4301 C   0  0  0  0  0  0  0  0  0  0  0  0
   -5.7298    3.4774    3.7713 C   0  0  0  0  0  0  0  0  0  0  0  0
   -5.7808    3.3140    2.3919 C   0  0  0  0  0  0  0  0  0  0  0  0
   -4.6068    3.0854    1.6551 C   0  0  0  0  0  0  0  0  0  0  0  0
   -4.7339    2.8949    0.2038 C   0  0  0  0  0  0  0  0  0  0  0  0
   -4.7227    1.7440   -0.5570 C   0  0  0  0  0  0  0  0  0  0  0  0
   -4.5773    0.4581   -0.0261 C   0  0  0  0  0  0  0  0  0  0  0  0
   -4.5925   -0.5591   -1.0133 C   0  0  0  0  0  0  0  0  0  0  0  0
   -4.4526   -1.8904   -0.6003 C   0  0  0  0  0  0  0  0  0  0  0  0
   -4.4581   -2.9564   -1.5154 C   0  0  0  0  0  0  0  0  0  0  0  0
   -4.3170   -4.2869   -1.0865 C   0  0  0  0  0  0  0  0  0  0  0  0
   -4.3240   -5.3389   -2.0036 C   0  0  0  0  0  0  0  0  0  0  0  0
   -4.4720   -5.0747   -3.3611 C   0  0  0  0  0  0  0  0  0  0  0  0
   -4.6130   -3.7582   -3.8026 C   0  0  0  0  0  0  0  0  0  0  0  0
   -4.6080   -2.6884   -2.8918 C   0  0  0  0  0  0  0  0  0  0  0  0
   -4.7490   -1.3595   -3.3258 C   0  0  0  0  0  0  0  0  0  0  0  0
   -4.7459   -0.2828   -2.4291 C   0  0  0  0  0  0  0  0  0  0  0  0
   -4.8924    1.0285   -2.9477 C   0  0  0  0  0  0  0  0  0  0  0  0
   -4.8729    2.0098   -1.9576 C   0  0  0  0  0  0  0  0  0  0  0  0
   -4.9969    3.3474   -2.2351 C   0  0  0  0  0  0  0  0  0  0  0  0
   -4.9307    4.2868   -0.7981 S   0  0  0  0  0  0  0  0  0  0  0  0
   -3.3485    3.0150    2.3178 C   0  0  0  0  0  0  0  0  0  0  0  0
   -2.1183    2.7896    1.6536 C   0  0  0  0  0  0  0  0  0  0  0  0
   -0.8946    2.7148    2.3403 C   0  0  0  0  0  0  0  0  0  0  0  0
    0.3134    2.4817    1.6626 C   0  0  0  0  0  0  0  0  0  0  0  0
    1.5360    2.4033    2.3498 C   0  0  0  0  0  0  0  0  0  0  0  0
    2.7443    2.1672    1.6725 C   0  0  0  0  0  0  0  0  0  0  0  0
    3.9873    2.0790    2.3455 C   0  0  0  0  0  0  0  0  0  0  0  0
    5.0238    0.5175   -0.5283 C   0  0  0  0  0  0  0  0  0  0  0  0
    4.5721   -0.6983   -0.0049 C   0  0  0  0  0  0  0  0  0  0  0  0
    4.3291   -1.6786   -0.9994 C   0  0  0  0  0  0  0  0  0  0  0  0
    3.8674   -2.9376   -0.5946 C   0  0  0  0  0  0  0  0  0  0  0  0
    3.6003   -3.9624   -1.5176 C   0  0  0  0  0  0  0  0  0  0  0  0
    3.1366   -5.2201   -1.0971 C   0  0  0  0  0  0  0  0  0  0  0  0
    2.8735   -6.2314   -2.0221 C   0  0  0  0  0  0  0  0  0  0  0  0
    2.8664   -6.7841   -4.1019 H   0  0  0  0  0  0  0  0  0  0  0  0
    3.6787   -4.5925   -4.8778 H   0  0  0  0  0  0  0  0  0  0  0  0
    4.4131   -2.3006   -4.3846 H   0  0  0  0  0  0  0  0  0  0  0  0
    5.1501   -0.0104   -3.9807 H   0  0  0  0  0  0  0  0  0  0  0  0
    5.9055    2.4704   -3.1518 H   0  0  0  0  0  0  0  0  0  0  0  0
    7.3650    1.5703    1.9374 H   0  0  0  0  0  0  0  0  0  0  0  0
    7.3225    1.8754    4.3848 H   0  0  0  0  0  0  0  0  0  0  0  0
    5.1972    2.2987    5.5471 H   0  0  0  0  0  0  0  0  0  0  0  0
    2.7874    2.6091    5.5087 H   0  0  0  0  0  0  0  0  0  0  0  0
    0.3552    2.9236    5.5046 H   0  0  0  0  0  0  0  0  0  0  0  0
   -2.0767    3.2346    5.4902 H   0  0  0  0  0  0  0  0  0  0  0  0
   -4.4873    3.5377    5.5106 H   0  0  0  0  0  0  0  0  0  0  0  0
   -6.6429    3.6551    4.3333 H   0  0  0  0  0  0  0  0  0  0  0  0
   -6.7435    3.3615    1.8866 H   0  0  0  0  0  0  0  0  0  0  0  0
   -4.4597    0.2513    1.0308 H   0  0  0  0  0  0  0  0  0  0  0  0
   -4.3359   -2.1106    0.4602 H   0  0  0  0  0  0  0  0  0  0  0  0
   -4.2001   -4.5143   -0.0291 H   0  0  0  0  0  0  0  0  0  0  0  0
   -4.2138   -6.3630   -1.6566 H   0  0  0  0  0  0  0  0  0  0  0  0
   -4.4777   -5.8917   -4.0778 H   0  0  0  0  0  0  0  0  0  0  0  0
   -4.7272   -3.5725   -4.8683 H   0  0  0  0  0  0  0  0  0  0  0  0
   -4.8637   -1.1662   -4.3915 H   0  0  0  0  0  0  0  0  0  0  0  0
   -5.0063    1.2385   -4.0035 H   0  0  0  0  0  0  0  0  0  0  0  0
   -5.1223    3.8347   -3.1921 H   0  0  0  0  0  0  0  0  0  0  0  0
   -2.1081    2.6689    0.5713 H   0  0  0  0  0  0  0  0  0  0  0  0
    0.3021    2.3566    0.5807 H   0  0  0  0  0  0  0  0  0  0  0  0
    2.7114    2.0489    0.5903 H   0  0  0  0  0  0  0  0  0  0  0  0
    4.4150   -0.8796    1.0515 H   0  0  0  0  0  0  0  0  0  0  0  0
    3.7083   -3.1322    0.4654 H   0  0  0  0  0  0  0  0  0  0  0  0
    2.9758   -5.4218   -0.0402 H   0  0  0  0  0  0  0  0  0  0  0  0
    2.5148   -7.1992   -1.6816 H   0  0  0  0  0  0  0  0  0  0  0  0
  1  2  4  0
  2  3  4  0
  3  4  4  0
  4  5  4  0
  5  6  4  0
  6  7  4  0
  7  8  4  0
  8  9  4  0
  9 10  4  0
 10 11  1  0
 11 12  4  0
 12 13  4  0
 13 14  4  0
 14 15  4  0
 15 16  4  0
 16 17  4  0
 17 18  4  0
 18 19  4  0
 19 20  4  0
 20 21  4  0
 21 22  4  0
 22 23  4  0
 23 24  4  0
 24 25  4  0
 25 26  1  0
 26 27  4  0
 27 28  4  0
 28 29  4  0
 29 30  4  0
 30 31  4  0
 31 32  4  0
 32 33  4  0
 33 34  4  0
 34 35  4  0
 35 36  4  0
 36 37  4  0
 37 38  4  0
 38 39  4  0
 39 40  4  0
 40 41  4  0
 41 42  4  0
 25 43  4  0
 43 44  4  0
 44 45  4  0
 45 46  4  0
 46 47  4  0
 47 48  4  0
 48 49  4  0
 10 50  4  0
 50 51  4  0
 51 52  4  0
 52 53  4  0
 53 54  4  0
 54 55  4  0
 55 56  4  0
 56  1  4  0
 54  3  4  0
 52  5  4  0
 50  7  4  0
 49 11  4  0
 49 15  4  0
 47 17  4  0
 45 19  4  0
 43 21  4  0
 42 26  4  0
 40 27  4  0
 38 29  4  0
 36 31  4  0
  1 57  1  0
  2 58  1  0
  4 59  1  0
  6 60  1  0
  8 61  1  0
 12 62  1  0
 13 63  1  0
 14 64  1  0
 16 65  1  0
 18 66  1  0
 20 67  1  0
 22 68  1  0
 23 69  1  0
 24 70  1  0
 28 71  1  0
 30 72  1  0
 32 73  1  0
 33 74  1  0
 34 75  1  0
 35 76  1  0
 37 77  1  0
 39 78  1  0
 41 79  1  0
 44 80  1  0
 46 81  1  0
 48 82  1  0
 51 83  1  0
 53 84  1  0
 55 85  1  0
 56 86  1  0
M  END
