
     RDKit          3D

 86 98  0  0  0  0  0  0  0  0999 V2000
   -4.5377    4.4705    3.5087 C   0  0  0  0  0  0  0  0  0  0  0  0
   -4.7443    4.5471    2.1305 C   0  0  0  0  0  0  0  0  0  0  0  0
   -4.8460    3.3817    1.3519 C   0  0  0  0  0  0  0  0  0  0  0  0
   -5.0489    3.4423   -0.0356 C   0  0  0  0  0  0  0  0  0  0  0  0
   -5.1455    2.2887   -0.8266 C   0  0  0  0  0  0  0  0  0  0  0  0
   -5.3414    2.4680   -2.2170 C   0  0  0  0  0  0  0  0  0  0  0  0
   -5.4153    1.2689   -2.9204 C   0  0  0  0  0  0  0  0  0  0  0  0
   -5.5956    1.2255   -4.2809 C   0  0  0  0  0  0  0  0  0  0  0  0
   -5.6356   -0.3950   -4.8497 S   0  0  0  0  0  0  0  0  0  0  0  0
   -5.4092   -1.0298   -3.2677 C   0  0  0  0  0  0  0  0  0  0  0  0
   -5.3123   -0.0309   -2.3248 C   0  0  0  0  0  0  0  0  0  0  0  0
   -5.1239   -0.2437   -0.9448 C   0  0  0  0  0  0  0  0  0  0  0  0
   -5.0319   -1.5936   -0.3699 C   0  0  0  0  0  0  0  0  0  0  0  0
   -6.2292   -2.2647   -0.0577 C   0  0  0  0  0  0  0  0  0  0  0  0
   -6.2113   -3.5393    0.4970 C   0  0  0  0  0  0  0  0  0  0  0  0
   -4.9939   -4.1628    0.7533 C   0  0  0  0  0  0  0  0  0  0  0  0
   -3.7792   -3.5245    0.4600 C   0  0  0  0  0  0  0  0  0  0  0  0
   -2.5603   -4.1674    0.7354 C   0  0  0  0  0  0  0  0  0  0  0  0
   -1.3261   -3.5571    0.4625 C   0  0  0  0  0  0  0  0  0  0  0  0
   -0.1080   -4.1980    0.7469 C   0  0  0  0  0  0  0  0  0  0  0  0
    1.1259   -3.5814    0.4776 C   0  0  0  0  0  0  0  0  0  0  0  0
    2.3442   -4.2167    0.7647 C   0  0  0  0  0  0  0  0  0  0  0  0
    3.5793   -3.6014    0.4982 C   0  0  0  0  0  0  0  0  0  0  0  0
    4.7777   -4.2662    0.8002 C   0  0  0  0  0  0  0  0  0  0  0  0
    6.0104   -3.6729    0.5450 C   0  0  0  0  0  0  0  0  0  0  0  0
    6.0604   -2.4031   -0.0186 C   0  0  0  0  0  0  0  0  0  0  0  0
    4.8802   -1.7055   -0.3368 C   0  0  0  0  0  0  0  0  0  0  0  0
    5.0052   -0.3671   -0.9308 C   0  0  0  0  0  0  0  0  0  0  0  0
    5.0617    0.8666   -0.1913 C   0  0  0  0  0  0  0  0  0  0  0  0
    4.9877    0.8633    1.2178 C   0  0  0  0  0  0  0  0  0  0  0  0
    5.0370    2.0387    1.9870 C   0  0  0  0  0  0  0  0  0  0  0  0
    4.9593    1.9992    3.3894 C   0  0  0  0  0  0  0  0  0  0  0  0
    5.0104    3.1730    4.1423 C   0  0  0  0  0  0  0  0  0  0  0  0
    5.1397    4.4013    3.5029 C   0  0  0  0  0  0  0  0  0  0  0  0
    5.2171    4.4556    2.1105 C   0  0  0  0  0  0  0  0  0  0  0  0
    5.1663    3.2813    1.3401 C   0  0  0  0  0  0  0  0  0  0  0  0
    5.2408    3.3206   -0.0608 C   0  0  0  0  0  0  0  0  0  0  0  0
    5.1919    2.1588   -0.8438 C   0  0  0  0  0  0  0  0  0  0  0  0
    5.2725    2.3176   -2.2481 C   0  0  0  0  0  0  0  0  0  0  0  0
    5.2130    1.1120   -2.9416 C   0  0  0  0  0  0  0  0  0  0  0  0
    5.2705    1.0491   -4.3119 C   0  0  0  0  0  0  0  0  0  0  0  0
    5.1690   -0.5748   -4.8629 S   0  0  0  0  0  0  0  0  0  0  0  0
    5.0469   -1.1850   -3.2599 C   0  0  0  0  0  0  0  0  0  0  0  0
    5.0862   -0.1752   -2.3243 C   0  0  0  0  0  0  0  0  0  0  0  0
    3.6150   -2.3083   -0.0753 C   0  0  0  0  0  0  0  0  0  0  0  0
    2.3776   -1.6815   -0.3580 C   0  0  0  0  0  0  0  0  0  0  0  0
    1.1423   -2.2971   -0.0909 C   0  0  0  0  0  0  0  0  0  0  0  0
   -0.0759   -1.6577   -0.3776 C   0  0  0  0  0  0  0  0  0  0  0  0
   -1.3099   -2.2729   -0.1061 C   0  0  0  0  0  0  0  0  0  0  0  0
   -2.5291   -1.6318   -0.3865 C   0  0  0  0  0  0  0  0  0  0  0  0
   -3.7823   -2.2292   -0.1101 C   0  0  0  0  0  0  0  0  0  0  0  0
   -5.0394    0.9833   -0.1962 C   0  0  0  0  0  0  0  0  0  0  0  0
   -4.8420    0.9592    1.2006 C   0  0  0  0  0  0  0  0  0  0  0  0
   -4.7397    2.1259    1.9768 C   0  0  0  0  0  0  0  0  0  0  0  0
   -4.5304    2.0635    3.3646 C   0  0  0  0  0  0  0  0  0  0  0  0
   -4.4300    3.2287    4.1256 C   0  0  0  0  0  0  0  0  0  0  0  0
   -4.4595    5.3801    4.0981 H   0  0  0  0  0  0  0  0  0  0  0  0
   -4.8238    5.5274    1.6661 H   0  0  0  0  0  0  0  0  0  0  0  0
   -5.1291    4.4217   -0.5063 H   0  0  0  0  0  0  0  0  0  0  0  0
   -5.4207    3.4424   -2.6830 H   0  0  0  0  0  0  0  0  0  0  0  0
   -5.7044    2.0440   -4.9791 H   0  0  0  0  0  0  0  0  0  0  0  0
   -5.3596   -2.1017   -3.1308 H   0  0  0  0  0  0  0  0  0  0  0  0
   -7.1873   -1.7836   -0.2487 H   0  0  0  0  0  0  0  0  0  0  0  0
   -7.1442   -4.0448    0.7319 H   0  0  0  0  0  0  0  0  0  0  0  0
   -5.0005   -5.1593    1.1906 H   0  0  0  0  0  0  0  0  0  0  0  0
   -2.5716   -5.1629    1.1762 H   0  0  0  0  0  0  0  0  0  0  0  0
   -0.1205   -5.1928    1.1876 H   0  0  0  0  0  0  0  0  0  0  0  0
    2.3303   -5.2117    1.2063 H   0  0  0  0  0  0  0  0  0  0  0  0
    4.7591   -5.2608    1.2414 H   0  0  0  0  0  0  0  0  0  0  0  0
    6.9304   -4.1995    0.7849 H   0  0  0  0  0  0  0  0  0  0  0  0
    7.0300   -1.9476   -0.2138 H   0  0  0  0  0  0  0  0  0  0  0  0
    4.8852   -0.0840    1.7466 H   0  0  0  0  0  0  0  0  0  0  0  0
    4.8572    1.0477    3.9071 H   0  0  0  0  0  0  0  0  0  0  0  0
    4.9488    3.1262    5.2264 H   0  0  0  0  0  0  0  0  0  0  0  0
    5.1799    5.3177    4.0858 H   0  0  0  0  0  0  0  0  0  0  0  0
    5.3178    5.4258    1.6289 H   0  0  0  0  0  0  0  0  0  0  0  0
    5.3388    4.2900   -0.5484 H   0  0  0  0  0  0  0  0  0  0  0  0
    5.3686    3.2826   -2.7303 H   0  0  0  0  0  0  0  0  0  0  0  0
    5.3647    1.8550   -5.0265 H   0  0  0  0  0  0  0  0  0  0  0  0
    4.9513   -2.2516   -3.1067 H   0  0  0  0  0  0  0  0  0  0  0  0
    2.3713   -0.6850   -0.7977 H   0  0  0  0  0  0  0  0  0  0  0  0
   -0.0638   -0.6610   -0.8165 H   0  0  0  0  0  0  0  0  0  0  0  0
   -2.4967   -0.6363   -0.8276 H   0  0  0  0  0  0  0  0  0  0  0  0
   -4.7576    0.0015    1.7137 H   0  0  0  0  0  0  0  0  0  0  0  0
   -4.4405    1.1007    3.8635 H   0  0  0  0  0  0  0  0  0  0  0  0
   -4.2667    3.1641    5.1981 H   0  0  0  0  0  0  0  0  0  0  0  0
  1  2  4  0
  2  3  4  0
  3  4  4  0
  4  5  4  0
  5  6  4  0
  6  7  4  0
  7  8  4  0
  8  9  4  0
  9 10  4  0
 10 11  4  0
 11 12  4  0
 12 13  1  0
 13 14  4  0
 14 15  4  0
 15 16  4  0
 16 17  4  0
 17 18  4  0
 18 19  4  0
 19 20  4  0
 20 21  4  0
 21 22  4  0
 22 23  4  0
 23 24  4  0
 24 25  4  0
 25 26  4  0
 26 27  4  0
 27 28  1  0
 28 29  4  0
 29 30  4  0
 30 31  4  0
 31 32  4  0
 32 33  4  0
 33 34  4  0
 34 35  4  0
 35 36  4  0
 36 37  4  0
 37 38  4  0
 38 39  4  0
 39 40  4  0
 40 41  4  0
 41 42  4  0
 42 43  4  0
 43 44  4  0
 27 45  4  0
 45 46  4  0
 46 47  4  0
 47 48  4  0
 48 49  4  0
 49 50  4  0
 50 51  4  0
 12 52  4  0
 52 53  4  0
 53 54  4  0
 54 55  4  0
 55 56  4  0
 56  1  4  0
 54  3  4  0
 52  5  4  0
 11  7  4  0
 51 13  4  0
 51 17  4  0
 49 19  4  0
 47 21  4  0
 45 23  4  0
 44 28  4  0
 38 29  4  0
 44 40  4  0
 36 31  4  0
  1 57  1  0
  2 58  1  0
  4 59  1  0
  6 60  1  0
  8 61  1  0
 10 62  1  0
 14 63  1  0
 15 64  1  0
 16 65  1  0
 18 66  1  0
 20 67  1  0
 22 68  1  0
 24 69  1  0
 25 70  1  0
 26 71  1  0
 30 72  1  0
 32 73  1  0
 33 74  1  0
 34 75  1  0
 35 76  1  0
 37 77  1  0
 39 78  1  0
 41 79  1  0
 43 80  1  0
 46 81  1  0
 48 82  1  0
 50 83  1  0
 53 84  1  0
 55 85  1  0
 56 86  1  0
M  END
