
     RDKit          3D

 86 98  0  0  0  0  0  0  0  0999 V2000
    5.5166   -2.8029    3.5707 C   0  0  0  0  0  0  0  0  0  0  0  0
    5.4822   -1.4288    3.7964 C   0  0  0  0  0  0  0  0  0  0  0  0
    5.3337   -0.5194    2.7338 C   0  0  0  0  0  0  0  0  0  0  0  0
    5.2971    0.8551    2.9971 C   0  0  0  0  0  0  0  0  0  0  0  0
    5.1493    1.8085    1.9879 C   0  0  0  0  0  0  0  0  0  0  0  0
    5.1209    3.1698    2.3915 C   0  0  0  0  0  0  0  0  0  0  0  0
    4.9680    4.0505    1.3252 C   0  0  0  0  0  0  0  0  0  0  0  0
    4.9098    5.4134    1.4763 C   0  0  0  0  0  0  0  0  0  0  0  0
    4.7154    6.1971   -0.0448 S   0  0  0  0  0  0  0  0  0  0  0  0
    4.7094    4.7011   -0.8972 C   0  0  0  0  0  0  0  0  0  0  0  0
    4.8534    3.6424   -0.0355 C   0  0  0  0  0  0  0  0  0  0  0  0
    4.8813    2.3138   -0.4558 C   0  0  0  0  0  0  0  0  0  0  0  0
    5.0344    1.3651    0.6065 C   0  0  0  0  0  0  0  0  0  0  0  0
    5.0757   -0.0397    0.3404 C   0  0  0  0  0  0  0  0  0  0  0  0
    4.9801   -0.5339   -1.0610 C   0  0  0  0  0  0  0  0  0  0  0  0
    6.1772   -0.7239   -1.7784 C   0  0  0  0  0  0  0  0  0  0  0  0
    6.1589   -1.1815   -3.0906 C   0  0  0  0  0  0  0  0  0  0  0  0
    4.9426   -1.4556   -3.7085 C   0  0  0  0  0  0  0  0  0  0  0  0
    3.7288   -1.2773   -3.0270 C   0  0  0  0  0  0  0  0  0  0  0  0
    2.5116   -1.5565   -3.6710 C   0  0  0  0  0  0  0  0  0  0  0  0
    1.2783   -1.3856   -3.0232 C   0  0  0  0  0  0  0  0  0  0  0  0
    0.0618   -1.6610   -3.6709 C   0  0  0  0  0  0  0  0  0  0  0  0
   -1.1716   -1.4832   -3.0209 C   0  0  0  0  0  0  0  0  0  0  0  0
   -2.3890   -1.7532   -3.6654 C   0  0  0  0  0  0  0  0  0  0  0  0
   -3.6234   -1.5719   -3.0188 C   0  0  0  0  0  0  0  0  0  0  0  0
   -4.8213   -1.8493   -3.6952 C   0  0  0  0  0  0  0  0  0  0  0  0
   -6.0540   -1.6753   -3.0725 C   0  0  0  0  0  0  0  0  0  0  0  0
   -6.1049   -1.2204   -1.7601 C   0  0  0  0  0  0  0  0  0  0  0  0
   -4.9244   -0.9316   -1.0484 C   0  0  0  0  0  0  0  0  0  0  0  0
   -5.0505   -0.4503    0.3550 C   0  0  0  0  0  0  0  0  0  0  0  0
   -5.0749   -1.4084    1.4217 C   0  0  0  0  0  0  0  0  0  0  0  0
   -4.9751   -2.8096    1.2251 C   0  0  0  0  0  0  0  0  0  0  0  0
   -5.0009   -3.7139    2.2890 C   0  0  0  0  0  0  0  0  0  0  0  0
   -5.1277   -3.2451    3.5870 C   0  0  0  0  0  0  0  0  0  0  0  0
   -5.2261   -1.8747    3.8158 C   0  0  0  0  0  0  0  0  0  0  0  0
   -5.2004   -0.9547    2.7524 C   0  0  0  0  0  0  0  0  0  0  0  0
   -5.2984    0.4162    3.0185 C   0  0  0  0  0  0  0  0  0  0  0  0
   -5.2762    1.3797    2.0084 C   0  0  0  0  0  0  0  0  0  0  0  0
   -5.3810    2.7364    2.4150 C   0  0  0  0  0  0  0  0  0  0  0  0
   -5.3469    3.6285    1.3478 C   0  0  0  0  0  0  0  0  0  0  0  0
   -5.4311    4.9898    1.5013 C   0  0  0  0  0  0  0  0  0  0  0  0
   -5.3555    5.7901   -0.0219 S   0  0  0  0  0  0  0  0  0  0  0  0
   -5.2095    4.3032   -0.8780 C   0  0  0  0  0  0  0  0  0  0  0  0
   -5.2205    3.2350   -0.0162 C   0  0  0  0  0  0  0  0  0  0  0  0
   -5.1173    1.9109   -0.4392 C   0  0  0  0  0  0  0  0  0  0  0  0
   -5.1481    0.9511    0.6237 C   0  0  0  0  0  0  0  0  0  0  0  0
   -3.6591   -1.1083   -1.6825 C   0  0  0  0  0  0  0  0  0  0  0  0
   -2.4231   -0.8435   -1.0462 C   0  0  0  0  0  0  0  0  0  0  0  0
   -1.1885   -1.0226   -1.6939 C   0  0  0  0  0  0  0  0  0  0  0  0
    0.0283   -0.7508   -1.0455 C   0  0  0  0  0  0  0  0  0  0  0  0
    1.2615   -0.9265   -1.6956 C   0  0  0  0  0  0  0  0  0  0  0  0
    2.4794   -0.6515   -1.0494 C   0  0  0  0  0  0  0  0  0  0  0  0
    3.7310   -0.8141   -1.6898 C   0  0  0  0  0  0  0  0  0  0  0  0
    5.2210   -0.9875    1.4067 C   0  0  0  0  0  0  0  0  0  0  0  0
    5.2576   -2.3922    1.2135 C   0  0  0  0  0  0  0  0  0  0  0  0
    5.4027   -3.2861    2.2768 C   0  0  0  0  0  0  0  0  0  0  0  0
    5.6291   -3.4911    4.4038 H   0  0  0  0  0  0  0  0  0  0  0  0
    5.5724   -1.0696    4.8198 H   0  0  0  0  0  0  0  0  0  0  0  0
    5.3861    1.1878    4.0315 H   0  0  0  0  0  0  0  0  0  0  0  0
    5.2074    3.4867    3.4232 H   0  0  0  0  0  0  0  0  0  0  0  0
    4.9684    6.0015    2.3816 H   0  0  0  0  0  0  0  0  0  0  0  0
    4.6003    4.6924   -1.9730 H   0  0  0  0  0  0  0  0  0  0  0  0
    4.7891    2.0335   -1.4976 H   0  0  0  0  0  0  0  0  0  0  0  0
    7.1335   -0.5114   -1.3029 H   0  0  0  0  0  0  0  0  0  0  0  0
    7.0909   -1.3240   -3.6312 H   0  0  0  0  0  0  0  0  0  0  0  0
    4.9500   -1.8128   -4.7366 H   0  0  0  0  0  0  0  0  0  0  0  0
    2.5237   -1.9118   -4.7001 H   0  0  0  0  0  0  0  0  0  0  0  0
    0.0750   -2.0186   -4.6985 H   0  0  0  0  0  0  0  0  0  0  0  0
   -2.3745   -2.1113   -4.6934 H   0  0  0  0  0  0  0  0  0  0  0  0
   -4.8026   -2.2066   -4.7230 H   0  0  0  0  0  0  0  0  0  0  0  0
   -6.9731   -1.8946   -3.6094 H   0  0  0  0  0  0  0  0  0  0  0  0
   -7.0733   -1.0882   -1.2801 H   0  0  0  0  0  0  0  0  0  0  0  0
   -4.8695   -3.2206    0.2225 H   0  0  0  0  0  0  0  0  0  0  0  0
   -4.9195   -4.7802    2.0960 H   0  0  0  0  0  0  0  0  0  0  0  0
   -5.1491   -3.9413    4.4208 H   0  0  0  0  0  0  0  0  0  0  0  0
   -5.3234   -1.5268    4.8424 H   0  0  0  0  0  0  0  0  0  0  0  0
   -5.3941    0.7378    4.0558 H   0  0  0  0  0  0  0  0  0  0  0  0
   -5.4763    3.0421    3.4493 H   0  0  0  0  0  0  0  0  0  0  0  0
   -5.5319    5.5679    2.4093 H   0  0  0  0  0  0  0  0  0  0  0  0
   -5.1250    4.3063   -1.9560 H   0  0  0  0  0  0  0  0  0  0  0  0
   -5.0187    1.6419   -1.4834 H   0  0  0  0  0  0  0  0  0  0  0  0
   -2.4180   -0.4865   -0.0171 H   0  0  0  0  0  0  0  0  0  0  0  0
    0.0151   -0.3935   -0.0167 H   0  0  0  0  0  0  0  0  0  0  0  0
    2.4471   -0.2987   -0.0191 H   0  0  0  0  0  0  0  0  0  0  0  0
    5.1673   -2.8150    0.2143 H   0  0  0  0  0  0  0  0  0  0  0  0
    5.4248   -4.3559    2.0870 H   0  0  0  0  0  0  0  0  0  0  0  0
  1  2  4  0
  2  3  4  0
  3  4  4  0
  4  5  4  0
  5  6  4  0
  6  7  4  0
  7  8  4  0
  8  9  4  0
  9 10  4  0
 10 11  4  0
 11 12  4  0
 12 13  4  0
 13 14  4  0
 14 15  1  0
 15 16  4  0
 16 17  4  0
 17 18  4  0
 18 19  4  0
 19 20  4  0
 20 21  4  0
 21 22  4  0
 22 23  4  0
 23 24  4  0
 24 25  4  0
 25 26  4  0
 26 27  4  0
 27 28  4  0
 28 29  4  0
 29 30  1  0
 30 31  4  0
 31 32  4  0
 32 33  4  0
 33 34  4  0
 34 35  4  0
 35 36  4  0
 36 37  4  0
 37 38  4  0
 38 39  4  0
 39 40  4  0
 40 41  4  0
 41 42  4  0
 42 43  4  0
 43 44  4  0
 44 45  4  0
 45 46  4  0
 29 47  4  0
 47 48  4  0
 48 49  4  0
 49 50  4  0
 50 51  4  0
 51 52  4  0
 52 53  4  0
 14 54  4  0
 54 55  4  0
 55 56  4  0
 56  1  4  0
 54  3  4  0
 13  5  4  0
 53 15  4  0
 11  7  4  0
 53 19  4  0
 51 21  4  0
 49 23  4  0
 47 25  4  0
 46 30  4  0
 36 31  4  0
 46 38  4  0
 44 40  4  0
  1 57  1  0
  2 58  1  0
  4 59  1  0
  6 60  1  0
  8 61  1  0
 10 62  1  0
 12 63  1  0
 16 64  1  0
 17 65  1  0
 18 66  1  0
 20 67  1  0
 22 68  1  0
 24 69  1  0
 26 70  1  0
 27 71  1  0
 28 72  1  0
 32 73  1  0
 33 74  1  0
 34 75  1  0
 35 76  1  0
 37 77  1  0
 39 78  1  0
 41 79  1  0
 43 80  1  0
 45 81  1  0
 48 82  1  0
 50 83  1  0
 52 84  1  0
 55 85  1  0
 56 86  1  0
M  END
