
     RDKit          3D

 84 96  0  0  0  0  0  0  0  0999 V2000
    3.7632    1.2948   -6.0346 C   0  0  0  0  0  0  0  0  0  0  0  0
    4.0092    2.5655   -5.5187 C   0  0  0  0  0  0  0  0  0  0  0  0
    4.3773    2.7319   -4.1756 C   0  0  0  0  0  0  0  0  0  0  0  0
    4.4993    1.5966   -3.3383 C   0  0  0  0  0  0  0  0  0  0  0  0
    4.2491    0.3121   -3.8661 C   0  0  0  0  0  0  0  0  0  0  0  0
    3.8823    0.1753   -5.2134 C   0  0  0  0  0  0  0  0  0  0  0  0
    4.3722   -0.8042   -3.0320 C   0  0  0  0  0  0  0  0  0  0  0  0
    4.7370   -0.6791   -1.6782 C   0  0  0  0  0  0  0  0  0  0  0  0
    4.8444   -1.9143   -0.8719 C   0  0  0  0  0  0  0  0  0  0  0  0
    6.0740   -2.5987   -0.8695 C   0  0  0  0  0  0  0  0  0  0  0  0
    6.2395   -3.7683   -0.1364 C   0  0  0  0  0  0  0  0  0  0  0  0
    5.1762   -4.2744    0.6052 C   0  0  0  0  0  0  0  0  0  0  0  0
    3.9344   -3.6216    0.6264 C   0  0  0  0  0  0  0  0  0  0  0  0
    2.8728   -4.1493    1.3814 C   0  0  0  0  0  0  0  0  0  0  0  0
    1.6178   -3.5225    1.4269 C   0  0  0  0  0  0  0  0  0  0  0  0
    0.5571   -4.0513    2.1820 C   0  0  0  0  0  0  0  0  0  0  0  0
   -0.6975   -3.4196    2.2266 C   0  0  0  0  0  0  0  0  0  0  0  0
   -1.7588   -3.9448    2.9800 C   0  0  0  0  0  0  0  0  0  0  0  0
   -3.0131   -3.3134    3.0297 C   0  0  0  0  0  0  0  0  0  0  0  0
   -4.0506   -3.8667    3.7956 C   0  0  0  0  0  0  0  0  0  0  0  0
   -5.2988   -3.2551    3.8600 C   0  0  0  0  0  0  0  0  0  0  0  0
   -5.5258   -2.0772    3.1580 C   0  0  0  0  0  0  0  0  0  0  0  0
   -4.5097   -1.4911    2.3805 C   0  0  0  0  0  0  0  0  0  0  0  0
   -4.8204   -0.2360    1.6635 C   0  0  0  0  0  0  0  0  0  0  0  0
   -5.4206   -0.3316    0.3940 C   0  0  0  0  0  0  0  0  0  0  0  0
   -5.7516    0.8062   -0.3491 C   0  0  0  0  0  0  0  0  0  0  0  0
   -6.3491    0.6991   -1.6140 C   0  0  0  0  0  0  0  0  0  0  0  0
   -6.6745    1.8399   -2.3447 C   0  0  0  0  0  0  0  0  0  0  0  0
   -6.4063    3.1023   -1.8196 C   0  0  0  0  0  0  0  0  0  0  0  0
   -5.8095    3.2391   -0.5577 C   0  0  0  0  0  0  0  0  0  0  0  0
   -5.4778    2.0822    0.1876 C   0  0  0  0  0  0  0  0  0  0  0  0
   -4.8744    2.2030    1.4658 C   0  0  0  0  0  0  0  0  0  0  0  0
   -4.6076    3.4945    1.9866 C   0  0  0  0  0  0  0  0  0  0  0  0
   -4.0120    3.6260    3.2466 C   0  0  0  0  0  0  0  0  0  0  0  0
   -3.6804    2.4996    3.9904 C   0  0  0  0  0  0  0  0  0  0  0  0
   -3.9418    1.2284    3.4811 C   0  0  0  0  0  0  0  0  0  0  0  0
   -4.5414    1.0448    2.2146 C   0  0  0  0  0  0  0  0  0  0  0  0
   -4.9422    4.6278    1.2351 C   0  0  0  0  0  0  0  0  0  0  0  0
   -5.5357    4.5020   -0.0214 C   0  0  0  0  0  0  0  0  0  0  0  0
   -3.2304   -2.1160    2.3075 C   0  0  0  0  0  0  0  0  0  0  0  0
   -2.1510   -1.6016    1.5498 C   0  0  0  0  0  0  0  0  0  0  0  0
   -0.8959   -2.2331    1.5011 C   0  0  0  0  0  0  0  0  0  0  0  0
    0.1647   -1.7051    0.7454 C   0  0  0  0  0  0  0  0  0  0  0  0
    1.4191   -2.3369    0.6996 C   0  0  0  0  0  0  0  0  0  0  0  0
    2.4807   -1.8100   -0.0565 C   0  0  0  0  0  0  0  0  0  0  0  0
    3.7518   -2.4294   -0.1142 C   0  0  0  0  0  0  0  0  0  0  0  0
    4.9924    0.6105   -1.1363 C   0  0  0  0  0  0  0  0  0  0  0  0
    5.3627    0.8241    0.2106 C   0  0  0  0  0  0  0  0  0  0  0  0
    5.6044    2.1033    0.7095 C   0  0  0  0  0  0  0  0  0  0  0  0
    5.4828    3.2080   -0.1256 C   0  0  0  0  0  0  0  0  0  0  0  0
    5.1171    3.0469   -1.4672 C   0  0  0  0  0  0  0  0  0  0  0  0
    4.8703    1.7471   -1.9774 C   0  0  0  0  0  0  0  0  0  0  0  0
    4.9922    4.1585   -2.3101 C   0  0  0  0  0  0  0  0  0  0  0  0
    4.6267    4.0035   -3.6477 C   0  0  0  0  0  0  0  0  0  0  0  0
    3.4787    1.1767   -7.0770 H   0  0  0  0  0  0  0  0  0  0  0  0
    3.9113    3.4276   -6.1747 H   0  0  0  0  0  0  0  0  0  0  0  0
    3.6866   -0.8088   -5.6341 H   0  0  0  0  0  0  0  0  0  0  0  0
    4.1790   -1.7987   -3.4335 H   0  0  0  0  0  0  0  0  0  0  0  0
    6.9126   -2.2102   -1.4454 H   0  0  0  0  0  0  0  0  0  0  0  0
    7.1956   -4.2849   -0.1430 H   0  0  0  0  0  0  0  0  0  0  0  0
    5.3259   -5.1913    1.1716 H   0  0  0  0  0  0  0  0  0  0  0  0
    3.0262   -5.0674    1.9462 H   0  0  0  0  0  0  0  0  0  0  0  0
    0.7103   -4.9697    2.7455 H   0  0  0  0  0  0  0  0  0  0  0  0
   -1.6041   -4.8648    3.5413 H   0  0  0  0  0  0  0  0  0  0  0  0
   -3.8918   -4.7873    4.3534 H   0  0  0  0  0  0  0  0  0  0  0  0
   -6.0930   -3.6945    4.4575 H   0  0  0  0  0  0  0  0  0  0  0  0
   -6.5042   -1.6034    3.2185 H   0  0  0  0  0  0  0  0  0  0  0  0
   -5.6282   -1.3199   -0.0154 H   0  0  0  0  0  0  0  0  0  0  0  0
   -6.5658   -0.2781   -2.0404 H   0  0  0  0  0  0  0  0  0  0  0  0
   -7.1371    1.7451   -3.3236 H   0  0  0  0  0  0  0  0  0  0  0  0
   -6.6673    3.9814   -2.4042 H   0  0  0  0  0  0  0  0  0  0  0  0
   -3.7999    4.6097    3.6593 H   0  0  0  0  0  0  0  0  0  0  0  0
   -3.2158    2.6071    4.9669 H   0  0  0  0  0  0  0  0  0  0  0  0
   -3.6650    0.3705    4.0914 H   0  0  0  0  0  0  0  0  0  0  0  0
   -4.7433    5.6244    1.6229 H   0  0  0  0  0  0  0  0  0  0  0  0
   -5.7827    5.4032   -0.5777 H   0  0  0  0  0  0  0  0  0  0  0  0
   -2.2872   -0.6813    0.9831 H   0  0  0  0  0  0  0  0  0  0  0  0
    0.0120   -0.7846    0.1832 H   0  0  0  0  0  0  0  0  0  0  0  0
    2.3095   -0.8894   -0.6132 H   0  0  0  0  0  0  0  0  0  0  0  0
    5.4649   -0.0157    0.8957 H   0  0  0  0  0  0  0  0  0  0  0  0
    5.8863    2.2347    1.7509 H   0  0  0  0  0  0  0  0  0  0  0  0
    5.6753    4.1983    0.2808 H   0  0  0  0  0  0  0  0  0  0  0  0
    5.1787    5.1612   -1.9315 H   0  0  0  0  0  0  0  0  0  0  0  0
    4.5388    4.8884   -4.2740 H   0  0  0  0  0  0  0  0  0  0  0  0
  1  2  4  0
  2  3  4  0
  3  4  4  0
  4  5  4  0
  5  6  4  0
  5  7  4  0
  7  8  4  0
  8  9  1  0
  9 10  4  0
 10 11  4  0
 11 12  4  0
 12 13  4  0
 13 14  4  0
 14 15  4  0
 15 16  4  0
 16 17  4  0
 17 18  4  0
 18 19  4  0
 19 20  4  0
 20 21  4  0
 21 22  4  0
 22 23  4  0
 23 24  1  0
 24 25  4  0
 25 26  4  0
 26 27  4  0
 27 28  4  0
 28 29  4  0
 29 30  4  0
 30 31  4  0
 31 32  4  0
 32 33  4  0
 33 34  4  0
 34 35  4  0
 35 36  4  0
 36 37  4  0
 33 38  4  0
 38 39  4  0
 23 40  4  0
 40 41  4  0
 41 42  4  0
 42 43  4  0
 43 44  4  0
 44 45  4  0
 45 46  4  0
  8 47  4  0
 47 48  4  0
 48 49  4  0
 49 50  4  0
 50 51  4  0
 51 52  4  0
 51 53  4  0
 53 54  4  0
  6  1  4  0
 46  9  4  0
 52 47  4  0
 54  3  4  0
 52  4  4  0
 46 13  4  0
 44 15  4  0
 42 17  4  0
 40 19  4  0
 37 24  4  0
 31 26  4  0
 37 32  4  0
 39 30  4  0
  1 55  1  0
  2 56  1  0
  6 57  1  0
  7 58  1  0
 10 59  1  0
 11 60  1  0
 12 61  1  0
 14 62  1  0
 16 63  1  0
 18 64  1  0
 20 65  1  0
 21 66  1  0
 22 67  1  0
 25 68  1  0
 27 69  1  0
 28 70  1  0
 29 71  1  0
 34 72  1  0
 35 73  1  0
 36 74  1  0
 38 75  1  0
 39 76  1  0
 41 77  1  0
 43 78  1  0
 45 79  1  0
 48 80  1  0
 49 81  1  0
 50 82  1  0
 53 83  1  0
 54 84  1  0
M  END
