
     RDKit          3D

116132  0  0  0  0  0  0  0  0999 V2000
    2.6506    9.6255   -3.0274 C   0  0  0  0  0  0  0  0  0  0  0  0
    2.5084    8.4608   -3.7831 C   0  0  0  0  0  0  0  0  0  0  0  0
    2.8896    7.2137   -3.2607 C   0  0  0  0  0  0  0  0  0  0  0  0
    2.7530    6.0323   -4.0083 C   0  0  0  0  0  0  0  0  0  0  0  0
    3.1341    4.7849   -3.4848 C   0  0  0  0  0  0  0  0  0  0  0  0
    2.9974    3.6030   -4.2326 C   0  0  0  0  0  0  0  0  0  0  0  0
    3.3780    2.3552   -3.7100 C   0  0  0  0  0  0  0  0  0  0  0  0
    3.2425    1.1732   -4.4579 C   0  0  0  0  0  0  0  0  0  0  0  0
    3.6252   -0.0742   -3.9351 C   0  0  0  0  0  0  0  0  0  0  0  0
    3.4935   -1.2561   -4.6810 C   0  0  0  0  0  0  0  0  0  0  0  0
    3.8788   -2.5042   -4.1624 C   0  0  0  0  0  0  0  0  0  0  0  0
    3.7359   -3.6643   -4.9390 C   0  0  0  0  0  0  0  0  0  0  0  0
    4.1110   -4.9093   -4.4431 C   0  0  0  0  0  0  0  0  0  0  0  0
    4.6349   -5.0105   -3.1594 C   0  0  0  0  0  0  0  0  0  0  0  0
    4.7922   -3.8701   -2.3498 C   0  0  0  0  0  0  0  0  0  0  0  0
    5.3549   -4.0517   -0.9945 C   0  0  0  0  0  0  0  0  0  0  0  0
    6.7535   -4.0067   -0.8455 C   0  0  0  0  0  0  0  0  0  0  0  0
    7.3449   -4.1746    0.4015 C   0  0  0  0  0  0  0  0  0  0  0  0
    6.5467   -4.3923    1.5208 C   0  0  0  0  0  0  0  0  0  0  0  0
    5.1487   -4.4447    1.4121 C   0  0  0  0  0  0  0  0  0  0  0  0
    4.3592   -4.6650    2.5540 C   0  0  0  0  0  0  0  0  0  0  0  0
    2.9585   -4.7208    2.4830 C   0  0  0  0  0  0  0  0  0  0  0  0
    2.1695   -4.9386    3.6260 C   0  0  0  0  0  0  0  0  0  0  0  0
    0.7669   -4.9900    3.5497 C   0  0  0  0  0  0  0  0  0  0  0  0
   -0.0267   -5.2029    4.6880 C   0  0  0  0  0  0  0  0  0  0  0  0
   -1.4295   -5.2514    4.6120 C   0  0  0  0  0  0  0  0  0  0  0  0
   -2.1922   -5.4633    5.7707 C   0  0  0  0  0  0  0  0  0  0  0  0
   -3.5820   -5.5123    5.7145 C   0  0  0  0  0  0  0  0  0  0  0  0
   -4.2295   -5.3504    4.4947 C   0  0  0  0  0  0  0  0  0  0  0  0
   -3.4996   -5.1354    3.3112 C   0  0  0  0  0  0  0  0  0  0  0  0
   -4.2499   -4.9761    2.0467 C   0  0  0  0  0  0  0  0  0  0  0  0
   -4.5892   -3.6975    1.5142 C   0  0  0  0  0  0  0  0  0  0  0  0
   -4.2495   -2.4748    2.1409 C   0  0  0  0  0  0  0  0  0  0  0  0
   -4.5862   -1.2259    1.5898 C   0  0  0  0  0  0  0  0  0  0  0  0
   -4.2341   -0.0228    2.2251 C   0  0  0  0  0  0  0  0  0  0  0  0
   -4.5698    1.2247    1.6723 C   0  0  0  0  0  0  0  0  0  0  0  0
   -4.2172    2.4278    2.3068 C   0  0  0  0  0  0  0  0  0  0  0  0
   -4.5527    3.6751    1.7535 C   0  0  0  0  0  0  0  0  0  0  0  0
   -4.1994    4.8777    2.3889 C   0  0  0  0  0  0  0  0  0  0  0  0
   -4.5346    6.1247    1.8359 C   0  0  0  0  0  0  0  0  0  0  0  0
   -4.1817    7.3272    2.4706 C   0  0  0  0  0  0  0  0  0  0  0  0
   -4.5221    8.5585    1.9083 C   0  0  0  0  0  0  0  0  0  0  0  0
   -5.2191    8.6036    0.7050 C   0  0  0  0  0  0  0  0  0  0  0  0
   -5.5769    7.4175    0.0622 C   0  0  0  0  0  0  0  0  0  0  0  0
   -5.2415    6.1704    0.6155 C   0  0  0  0  0  0  0  0  0  0  0  0
   -5.5941    4.9676   -0.0188 C   0  0  0  0  0  0  0  0  0  0  0  0
   -5.2583    3.7205    0.5354 C   0  0  0  0  0  0  0  0  0  0  0  0
   -5.6108    2.5171   -0.0989 C   0  0  0  0  0  0  0  0  0  0  0  0
   -5.2752    1.2699    0.4548 C   0  0  0  0  0  0  0  0  0  0  0  0
   -5.6272    0.0664   -0.1792 C   0  0  0  0  0  0  0  0  0  0  0  0
   -5.2900   -1.1805    0.3747 C   0  0  0  0  0  0  0  0  0  0  0  0
   -5.6388   -2.3840   -0.2574 C   0  0  0  0  0  0  0  0  0  0  0  0
   -5.2990   -3.6322    0.2915 C   0  0  0  0  0  0  0  0  0  0  0  0
   -5.6601   -4.8147   -0.3717 C   0  0  0  0  0  0  0  0  0  0  0  0
   -5.3298   -6.0603    0.1536 C   0  0  0  0  0  0  0  0  0  0  0  0
   -4.6309   -6.1395    1.3527 C   0  0  0  0  0  0  0  0  0  0  0  0
   -2.0757   -5.0852    3.3639 C   0  0  0  0  0  0  0  0  0  0  0  0
   -1.2610   -4.8731    2.2267 C   0  0  0  0  0  0  0  0  0  0  0  0
    0.1411   -4.8221    2.3033 C   0  0  0  0  0  0  0  0  0  0  0  0
    0.9295   -4.6051    1.1613 C   0  0  0  0  0  0  0  0  0  0  0  0
    2.3311   -4.5525    1.2373 C   0  0  0  0  0  0  0  0  0  0  0  0
    3.1203   -4.3340    0.0950 C   0  0  0  0  0  0  0  0  0  0  0  0
    4.5331   -4.2746    0.1490 C   0  0  0  0  0  0  0  0  0  0  0  0
    4.4117   -2.5920   -2.8542 C   0  0  0  0  0  0  0  0  0  0  0  0
    4.5343   -1.3915   -2.1143 C   0  0  0  0  0  0  0  0  0  0  0  0
    4.1529   -0.1422   -2.6348 C   0  0  0  0  0  0  0  0  0  0  0  0
    4.2876    1.0394   -1.8855 C   0  0  0  0  0  0  0  0  0  0  0  0
    3.9079    2.2876   -2.4075 C   0  0  0  0  0  0  0  0  0  0  0  0
    4.0451    3.4695   -1.6596 C   0  0  0  0  0  0  0  0  0  0  0  0
    3.6648    4.7174   -2.1820 C   0  0  0  0  0  0  0  0  0  0  0  0
    3.8022    5.8987   -1.4332 C   0  0  0  0  0  0  0  0  0  0  0  0
    3.4216    7.1459   -1.9556 C   0  0  0  0  0  0  0  0  0  0  0  0
    3.5586    8.3270   -1.2074 C   0  0  0  0  0  0  0  0  0  0  0  0
    3.1754    9.5586   -1.7405 C   0  0  0  0  0  0  0  0  0  0  0  0
    2.3514   10.5835   -3.4445 H   0  0  0  0  0  0  0  0  0  0  0  0
    2.0957    8.5331   -4.7869 H   0  0  0  0  0  0  0  0  0  0  0  0
    2.3423    6.0841   -5.0150 H   0  0  0  0  0  0  0  0  0  0  0  0
    2.5873    3.6552   -5.2396 H   0  0  0  0  0  0  0  0  0  0  0  0
    2.8330    1.2250   -5.4651 H   0  0  0  0  0  0  0  0  0  0  0  0
    3.0816   -1.2027   -5.6875 H   0  0  0  0  0  0  0  0  0  0  0  0
    3.3272   -3.6059   -5.9458 H   0  0  0  0  0  0  0  0  0  0  0  0
    3.9939   -5.7992   -5.0557 H   0  0  0  0  0  0  0  0  0  0  0  0
    4.9213   -5.9895   -2.7786 H   0  0  0  0  0  0  0  0  0  0  0  0
    7.3864   -3.8355   -1.7146 H   0  0  0  0  0  0  0  0  0  0  0  0
    8.4264   -4.1362    0.5013 H   0  0  0  0  0  0  0  0  0  0  0  0
    7.0290   -4.5220    2.4876 H   0  0  0  0  0  0  0  0  0  0  0  0
    4.8447   -4.7949    3.5199 H   0  0  0  0  0  0  0  0  0  0  0  0
    2.6551   -5.0683    4.5914 H   0  0  0  0  0  0  0  0  0  0  0  0
    0.4589   -5.3311    5.6539 H   0  0  0  0  0  0  0  0  0  0  0  0
   -1.7043   -5.5921    6.7348 H   0  0  0  0  0  0  0  0  0  0  0  0
   -4.1594   -5.6762    6.6204 H   0  0  0  0  0  0  0  0  0  0  0  0
   -5.3171   -5.3882    4.4620 H   0  0  0  0  0  0  0  0  0  0  0  0
   -3.7041   -2.4924    3.0836 H   0  0  0  0  0  0  0  0  0  0  0  0
   -3.6877   -0.0591    3.1662 H   0  0  0  0  0  0  0  0  0  0  0  0
   -3.6714    2.3926    3.2481 H   0  0  0  0  0  0  0  0  0  0  0  0
   -3.6539    4.8425    3.3301 H   0  0  0  0  0  0  0  0  0  0  0  0
   -3.6367    7.3127    3.4118 H   0  0  0  0  0  0  0  0  0  0  0  0
   -4.2424    9.4808    2.4106 H   0  0  0  0  0  0  0  0  0  0  0  0
   -5.4853    9.5612    0.2653 H   0  0  0  0  0  0  0  0  0  0  0  0
   -6.1216    7.4734   -0.8776 H   0  0  0  0  0  0  0  0  0  0  0  0
   -6.1393    5.0036   -0.9603 H   0  0  0  0  0  0  0  0  0  0  0  0
   -6.1560    2.5520   -1.0405 H   0  0  0  0  0  0  0  0  0  0  0  0
   -6.1731    0.1008   -1.1204 H   0  0  0  0  0  0  0  0  0  0  0  0
   -6.1862   -2.3472   -1.1980 H   0  0  0  0  0  0  0  0  0  0  0  0
   -6.2059   -4.7738   -1.3122 H   0  0  0  0  0  0  0  0  0  0  0  0
   -5.6147   -6.9678   -0.3720 H   0  0  0  0  0  0  0  0  0  0  0  0
   -4.3720   -7.1188    1.7522 H   0  0  0  0  0  0  0  0  0  0  0  0
   -1.7283   -4.7386    1.2519 H   0  0  0  0  0  0  0  0  0  0  0  0
    0.4429   -4.4718    0.1962 H   0  0  0  0  0  0  0  0  0  0  0  0
    2.6164   -4.2032   -0.8619 H   0  0  0  0  0  0  0  0  0  0  0  0
    4.9368   -1.4277   -1.1027 H   0  0  0  0  0  0  0  0  0  0  0  0
    4.6965    0.9855   -0.8778 H   0  0  0  0  0  0  0  0  0  0  0  0
    4.4553    3.4169   -0.6526 H   0  0  0  0  0  0  0  0  0  0  0  0
    4.2122    5.8469   -0.4262 H   0  0  0  0  0  0  0  0  0  0  0  0
    3.9666    8.2951   -0.1997 H   0  0  0  0  0  0  0  0  0  0  0  0
    3.2871   10.4642   -1.1501 H   0  0  0  0  0  0  0  0  0  0  0  0
  1  2  4  0
  2  3  4  0
  3  4  4  0
  4  5  4  0
  5  6  4  0
  6  7  4  0
  7  8  4  0
  8  9  4  0
  9 10  4  0
 10 11  4  0
 11 12  4  0
 12 13  4  0
 13 14  4  0
 14 15  4  0
 15 16  1  0
 16 17  4  0
 17 18  4  0
 18 19  4  0
 19 20  4  0
 20 21  4  0
 21 22  4  0
 22 23  4  0
 23 24  4  0
 24 25  4  0
 25 26  4  0
 26 27  4  0
 27 28  4  0
 28 29  4  0
 29 30  4  0
 30 31  1  0
 31 32  4  0
 32 33  4  0
 33 34  4  0
 34 35  4  0
 35 36  4  0
 36 37  4  0
 37 38  4  0
 38 39  4  0
 39 40  4  0
 40 41  4  0
 41 42  4  0
 42 43  4  0
 43 44  4  0
 44 45  4  0
 45 46  4  0
 46 47  4  0
 47 48  4  0
 48 49  4  0
 49 50  4  0
 50 51  4  0
 51 52  4  0
 52 53  4  0
 53 54  4  0
 54 55  4  0
 55 56  4  0
 30 57  4  0
 57 58  4  0
 58 59  4  0
 59 60  4  0
 60 61  4  0
 61 62  4  0
 62 63  4  0
 15 64  4  0
 64 65  4  0
 65 66  4  0
 66 67  4  0
 67 68  4  0
 68 69  4  0
 69 70  4  0
 70 71  4  0
 71 72  4  0
 72 73  4  0
 73 74  4  0
 74  1  4  0
 72  3  4  0
 70  5  4  0
 68  7  4  0
 66  9  4  0
 64 11  4  0
 63 16  4  0
 63 20  4  0
 61 22  4  0
 59 24  4  0
 57 26  4  0
 56 31  4  0
 53 32  4  0
 51 34  4  0
 49 36  4  0
 47 38  4  0
 45 40  4  0
  1 75  1  0
  2 76  1  0
  4 77  1  0
  6 78  1  0
  8 79  1  0
 10 80  1  0
 12 81  1  0
 13 82  1  0
 14 83  1  0
 17 84  1  0
 18 85  1  0
 19 86  1  0
 21 87  1  0
 23 88  1  0
 25 89  1  0
 27 90  1  0
 28 91  1  0
 29 92  1  0
 33 93  1  0
 35 94  1  0
 37 95  1  0
 39 96  1  0
 41 97  1  0
 42 98  1  0
 43 99  1  0
 44100  1  0
 46101  1  0
 48102  1  0
 50103  1  0
 52104  1  0
 54105  1  0
 55106  1  0
 56107  1  0
 58108  1  0
 60109  1  0
 62110  1  0
 65111  1  0
 67112  1  0
 69113  1  0
 71114  1  0
 73115  1  0
 74116  1  0
M  END
