
     RDKit          3D

 92104  0  0  0  0  0  0  0  0999 V2000
    9.4155   -2.7676   -1.6611 C   0  0  0  0  0  0  0  0  0  0  0  0
    8.6396   -1.9814   -2.5145 C   0  0  0  0  0  0  0  0  0  0  0  0
    7.7526   -1.0215   -1.9994 C   0  0  0  0  0  0  0  0  0  0  0  0
    6.9635   -0.2229   -2.8439 C   0  0  0  0  0  0  0  0  0  0  0  0
    6.0761    0.7366   -2.3264 C   0  0  0  0  0  0  0  0  0  0  0  0
    5.2833    1.5339   -3.1666 C   0  0  0  0  0  0  0  0  0  0  0  0
    4.3934    2.4923   -2.6518 C   0  0  0  0  0  0  0  0  0  0  0  0
    3.6124    3.2684   -3.5217 C   0  0  0  0  0  0  0  0  0  0  0  0
    2.7231    4.2197   -3.0303 C   0  0  0  0  0  0  0  0  0  0  0  0
    2.6057    4.4105   -1.6581 C   0  0  0  0  0  0  0  0  0  0  0  0
    3.3737    3.6535   -0.7542 C   0  0  0  0  0  0  0  0  0  0  0  0
    3.2077    3.9152    0.6919 C   0  0  0  0  0  0  0  0  0  0  0  0
    3.9627    4.9546    1.2667 C   0  0  0  0  0  0  0  0  0  0  0  0
    3.8598    5.2489    2.6216 C   0  0  0  0  0  0  0  0  0  0  0  0
    2.9988    4.5075    3.4250 C   0  0  0  0  0  0  0  0  0  0  0  0
    2.2287    3.4646    2.8884 C   0  0  0  0  0  0  0  0  0  0  0  0
    1.3677    2.7255    3.7173 C   0  0  0  0  0  0  0  0  0  0  0  0
    0.5835    1.6750    3.2162 C   0  0  0  0  0  0  0  0  0  0  0  0
   -0.2761    0.9364    4.0473 C   0  0  0  0  0  0  0  0  0  0  0  0
   -1.0605   -0.1141    3.5415 C   0  0  0  0  0  0  0  0  0  0  0  0
   -1.9226   -0.8525    4.3671 C   0  0  0  0  0  0  0  0  0  0  0  0
   -2.7119   -1.8996    3.8615 C   0  0  0  0  0  0  0  0  0  0  0  0
   -3.5679   -2.6121    4.7149 C   0  0  0  0  0  0  0  0  0  0  0  0
   -4.3590   -3.6503    4.2323 C   0  0  0  0  0  0  0  0  0  0  0  0
   -4.3041   -3.9908    2.8855 C   0  0  0  0  0  0  0  0  0  0  0  0
   -3.4589   -3.2993    1.9981 C   0  0  0  0  0  0  0  0  0  0  0  0
   -3.4501   -3.7140    0.5785 C   0  0  0  0  0  0  0  0  0  0  0  0
   -4.2332   -3.0561   -0.4149 C   0  0  0  0  0  0  0  0  0  0  0  0
   -5.0830   -1.9587   -0.1384 C   0  0  0  0  0  0  0  0  0  0  0  0
   -5.8369   -1.3188   -1.1370 C   0  0  0  0  0  0  0  0  0  0  0  0
   -6.6681   -0.2253   -0.8404 C   0  0  0  0  0  0  0  0  0  0  0  0
   -7.4206    0.4142   -1.8389 C   0  0  0  0  0  0  0  0  0  0  0  0
   -8.2516    1.5076   -1.5439 C   0  0  0  0  0  0  0  0  0  0  0  0
   -8.9925    2.1325   -2.5480 C   0  0  0  0  0  0  0  0  0  0  0  0
   -8.9122    1.6726   -3.8586 C   0  0  0  0  0  0  0  0  0  0  0  0
   -8.0910    0.5872   -4.1674 C   0  0  0  0  0  0  0  0  0  0  0  0
   -7.3391   -0.0521   -3.1680 C   0  0  0  0  0  0  0  0  0  0  0  0
   -6.5070   -1.1449   -3.4621 C   0  0  0  0  0  0  0  0  0  0  0  0
   -5.7548   -1.7829   -2.4610 C   0  0  0  0  0  0  0  0  0  0  0  0
   -4.9206   -2.8736   -2.7514 C   0  0  0  0  0  0  0  0  0  0  0  0
   -4.1634   -3.5104   -1.7534 C   0  0  0  0  0  0  0  0  0  0  0  0
   -3.3361   -4.5951   -2.0814 C   0  0  0  0  0  0  0  0  0  0  0  0
   -2.5760   -5.2366   -1.1080 C   0  0  0  0  0  0  0  0  0  0  0  0
   -2.6330   -4.7989    0.2104 C   0  0  0  0  0  0  0  0  0  0  0  0
   -2.6455   -2.2356    2.4882 C   0  0  0  0  0  0  0  0  0  0  0  0
   -1.7678   -1.4840    1.6711 C   0  0  0  0  0  0  0  0  0  0  0  0
   -0.9825   -0.4334    2.1757 C   0  0  0  0  0  0  0  0  0  0  0  0
   -0.1231    0.3052    1.3451 C   0  0  0  0  0  0  0  0  0  0  0  0
    0.6609    1.3560    1.8502 C   0  0  0  0  0  0  0  0  0  0  0  0
    1.5216    2.0956    1.0207 C   0  0  0  0  0  0  0  0  0  0  0  0
    2.3212    3.1557    1.5102 C   0  0  0  0  0  0  0  0  0  0  0  0
    4.2834    2.6753   -1.2527 C   0  0  0  0  0  0  0  0  0  0  0  0
    5.0906    1.8643   -0.4199 C   0  0  0  0  0  0  0  0  0  0  0  0
    5.9771    0.9026   -0.9344 C   0  0  0  0  0  0  0  0  0  0  0  0
    6.7643    0.1041   -0.0876 C   0  0  0  0  0  0  0  0  0  0  0  0
    7.6508   -0.8561   -0.6020 C   0  0  0  0  0  0  0  0  0  0  0  0
    8.4376   -1.6550    0.2439 C   0  0  0  0  0  0  0  0  0  0  0  0
    9.3144   -2.6046   -0.2830 C   0  0  0  0  0  0  0  0  0  0  0  0
   10.0974   -3.5066   -2.0735 H   0  0  0  0  0  0  0  0  0  0  0  0
    8.7322   -2.1240   -3.5888 H   0  0  0  0  0  0  0  0  0  0  0  0
    7.0407   -0.3511   -3.9219 H   0  0  0  0  0  0  0  0  0  0  0  0
    5.3596    1.4037   -4.2449 H   0  0  0  0  0  0  0  0  0  0  0  0
    3.6909    3.1354   -4.5989 H   0  0  0  0  0  0  0  0  0  0  0  0
    2.1226    4.8109   -3.7163 H   0  0  0  0  0  0  0  0  0  0  0  0
    1.9055    5.1550   -1.2835 H   0  0  0  0  0  0  0  0  0  0  0  0
    4.6435    5.5369    0.6477 H   0  0  0  0  0  0  0  0  0  0  0  0
    4.4514    6.0529    3.0511 H   0  0  0  0  0  0  0  0  0  0  0  0
    2.9334    4.7517    4.4834 H   0  0  0  0  0  0  0  0  0  0  0  0
    1.3069    2.9726    4.7760 H   0  0  0  0  0  0  0  0  0  0  0  0
   -0.3364    1.1839    5.1055 H   0  0  0  0  0  0  0  0  0  0  0  0
   -1.9815   -0.6048    5.4258 H   0  0  0  0  0  0  0  0  0  0  0  0
   -3.6262   -2.3603    5.7719 H   0  0  0  0  0  0  0  0  0  0  0  0
   -5.0183   -4.1926    4.9049 H   0  0  0  0  0  0  0  0  0  0  0  0
   -4.9299   -4.8021    2.5174 H   0  0  0  0  0  0  0  0  0  0  0  0
   -5.1590   -1.5866    0.8824 H   0  0  0  0  0  0  0  0  0  0  0  0
   -6.7283    0.1347    0.1853 H   0  0  0  0  0  0  0  0  0  0  0  0
   -8.3270    1.8815   -0.5252 H   0  0  0  0  0  0  0  0  0  0  0  0
   -9.6310    2.9776   -2.3051 H   0  0  0  0  0  0  0  0  0  0  0  0
   -9.4879    2.1577   -4.6422 H   0  0  0  0  0  0  0  0  0  0  0  0
   -8.0414    0.2426   -5.1978 H   0  0  0  0  0  0  0  0  0  0  0  0
   -6.4436   -1.5042   -4.4876 H   0  0  0  0  0  0  0  0  0  0  0  0
   -4.8579   -3.2324   -3.7775 H   0  0  0  0  0  0  0  0  0  0  0  0
   -3.2765   -4.9513   -3.1079 H   0  0  0  0  0  0  0  0  0  0  0  0
   -1.9385   -6.0746   -1.3770 H   0  0  0  0  0  0  0  0  0  0  0  0
   -2.0293   -5.3028    0.9632 H   0  0  0  0  0  0  0  0  0  0  0  0
   -1.6957   -1.7172    0.6095 H   0  0  0  0  0  0  0  0  0  0  0  0
   -0.0645    0.0581    0.2860 H   0  0  0  0  0  0  0  0  0  0  0  0
    1.5700    1.8344   -0.0357 H   0  0  0  0  0  0  0  0  0  0  0  0
    5.0262    1.9796    0.6613 H   0  0  0  0  0  0  0  0  0  0  0  0
    6.6838    0.2317    0.9907 H   0  0  0  0  0  0  0  0  0  0  0  0
    8.3717   -1.5422    1.3239 H   0  0  0  0  0  0  0  0  0  0  0  0
    9.9170   -3.2159    0.3836 H   0  0  0  0  0  0  0  0  0  0  0  0
  1  2  4  0
  2  3  4  0
  3  4  4  0
  4  5  4  0
  5  6  4  0
  6  7  4  0
  7  8  4  0
  8  9  4  0
  9 10  4  0
 10 11  4  0
 11 12  1  0
 12 13  4  0
 13 14  4  0
 14 15  4  0
 15 16  4  0
 16 17  4  0
 17 18  4  0
 18 19  4  0
 19 20  4  0
 20 21  4  0
 21 22  4  0
 22 23  4  0
 23 24  4  0
 24 25  4  0
 25 26  4  0
 26 27  1  0
 27 28  4  0
 28 29  4  0
 29 30  4  0
 30 31  4  0
 31 32  4  0
 32 33  4  0
 33 34  4  0
 34 35  4  0
 35 36  4  0
 36 37  4  0
 37 38  4  0
 38 39  4  0
 39 40  4  0
 40 41  4  0
 41 42  4  0
 42 43  4  0
 43 44  4  0
 26 45  4  0
 45 46  4  0
 46 47  4  0
 47 48  4  0
 48 49  4  0
 49 50  4  0
 50 51  4  0
 11 52  4  0
 52 53  4  0
 53 54  4  0
 54 55  4  0
 55 56  4  0
 56 57  4  0
 57 58  4  0
 58  1  4  0
 56  3  4  0
 54  5  4  0
 52  7  4  0
 51 12  4  0
 51 16  4  0
 49 18  4  0
 47 20  4  0
 45 22  4  0
 44 27  4  0
 41 28  4  0
 39 30  4  0
 37 32  4  0
  1 59  1  0
  2 60  1  0
  4 61  1  0
  6 62  1  0
  8 63  1  0
  9 64  1  0
 10 65  1  0
 13 66  1  0
 14 67  1  0
 15 68  1  0
 17 69  1  0
 19 70  1  0
 21 71  1  0
 23 72  1  0
 24 73  1  0
 25 74  1  0
 29 75  1  0
 31 76  1  0
 33 77  1  0
 34 78  1  0
 35 79  1  0
 36 80  1  0
 38 81  1  0
 40 82  1  0
 42 83  1  0
 43 84  1  0
 44 85  1  0
 46 86  1  0
 48 87  1  0
 50 88  1  0
 53 89  1  0
 55 90  1  0
 57 91  1  0
 58 92  1  0
M  END
