
     RDKit          3D

 92104  0  0  0  0  0  0  0  0999 V2000
    6.5698    0.3433    3.2834 C   0  0  0  0  0  0  0  0  0  0  0  0
    6.2909   -0.9548    2.8830 C   0  0  0  0  0  0  0  0  0  0  0  0
    5.8061   -1.1949    1.5952 C   0  0  0  0  0  0  0  0  0  0  0  0
    5.5857   -0.1466    0.6664 C   0  0  0  0  0  0  0  0  0  0  0  0
    5.8723    1.1676    1.0975 C   0  0  0  0  0  0  0  0  0  0  0  0
    6.3608    1.3968    2.3961 C   0  0  0  0  0  0  0  0  0  0  0  0
    5.6679    2.2451    0.2270 C   0  0  0  0  0  0  0  0  0  0  0  0
    5.1822    2.0658   -1.0745 C   0  0  0  0  0  0  0  0  0  0  0  0
    4.9896    3.1801   -1.9114 C   0  0  0  0  0  0  0  0  0  0  0  0
    4.5022    3.0455   -3.2198 C   0  0  0  0  0  0  0  0  0  0  0  0
    4.3074    4.1594   -4.0547 C   0  0  0  0  0  0  0  0  0  0  0  0
    3.8187    4.0020   -5.3527 C   0  0  0  0  0  0  0  0  0  0  0  0
    3.5190    2.7305   -5.8312 C   0  0  0  0  0  0  0  0  0  0  0  0
    3.7085    1.6165   -5.0123 C   0  0  0  0  0  0  0  0  0  0  0  0
    4.2003    1.7603   -3.7041 C   0  0  0  0  0  0  0  0  0  0  0  0
    4.3971    0.6497   -2.8649 C   0  0  0  0  0  0  0  0  0  0  0  0
    4.8880    0.7673   -1.5395 C   0  0  0  0  0  0  0  0  0  0  0  0
    5.0929   -0.3481   -0.6633 C   0  0  0  0  0  0  0  0  0  0  0  0
    4.7999   -1.7255   -1.1411 C   0  0  0  0  0  0  0  0  0  0  0  0
    5.8485   -2.4608   -1.7263 C   0  0  0  0  0  0  0  0  0  0  0  0
    5.6392   -3.7512   -2.1987 C   0  0  0  0  0  0  0  0  0  0  0  0
    4.3768   -4.3279   -2.0953 C   0  0  0  0  0  0  0  0  0  0  0  0
    3.3061   -3.6259   -1.5206 C   0  0  0  0  0  0  0  0  0  0  0  0
    2.0372   -4.2233   -1.4316 C   0  0  0  0  0  0  0  0  0  0  0  0
    0.9419   -3.5482   -0.8707 C   0  0  0  0  0  0  0  0  0  0  0  0
   -0.3287   -4.1437   -0.7906 C   0  0  0  0  0  0  0  0  0  0  0  0
   -1.4246   -3.4609   -0.2349 C   0  0  0  0  0  0  0  0  0  0  0  0
   -2.6968   -4.0489   -0.1599 C   0  0  0  0  0  0  0  0  0  0  0  0
   -3.7953   -3.3661    0.3894 C   0  0  0  0  0  0  0  0  0  0  0  0
   -5.0541   -3.9843    0.4420 C   0  0  0  0  0  0  0  0  0  0  0  0
   -6.1556   -3.3237    0.9778 C   0  0  0  0  0  0  0  0  0  0  0  0
   -6.0117   -2.0319    1.4703 C   0  0  0  0  0  0  0  0  0  0  0  0
   -4.7644   -1.3793    1.4371 C   0  0  0  0  0  0  0  0  0  0  0  0
   -4.6841    0.0027    1.9800 C   0  0  0  0  0  0  0  0  0  0  0  0
   -4.8768    1.1225    1.1070 C   0  0  0  0  0  0  0  0  0  0  0  0
   -5.1321    1.0048   -0.2832 C   0  0  0  0  0  0  0  0  0  0  0  0
   -5.3147    2.1200   -1.1194 C   0  0  0  0  0  0  0  0  0  0  0  0
   -5.5645    1.9767   -2.4947 C   0  0  0  0  0  0  0  0  0  0  0  0
   -5.7435    3.0961   -3.3088 C   0  0  0  0  0  0  0  0  0  0  0  0
   -5.6744    4.3719   -2.7585 C   0  0  0  0  0  0  0  0  0  0  0  0
   -5.4264    4.5287   -1.3941 C   0  0  0  0  0  0  0  0  0  0  0  0
   -5.2446    3.4099   -0.5636 C   0  0  0  0  0  0  0  0  0  0  0  0
   -4.9937    3.5447    0.8096 C   0  0  0  0  0  0  0  0  0  0  0  0
   -4.8106    2.4258    1.6420 C   0  0  0  0  0  0  0  0  0  0  0  0
   -4.5625    2.6055    3.0086 C   0  0  0  0  0  0  0  0  0  0  0  0
   -4.3727    1.5234    3.8765 C   0  0  0  0  0  0  0  0  0  0  0  0
   -4.1301    1.7528    5.2426 C   0  0  0  0  0  0  0  0  0  0  0  0
   -3.9344    0.6942    6.1269 C   0  0  0  0  0  0  0  0  0  0  0  0
   -3.9762   -0.6090    5.6547 C   0  0  0  0  0  0  0  0  0  0  0  0
   -4.2181   -0.8492    4.3001 C   0  0  0  0  0  0  0  0  0  0  0  0
   -4.4268    0.2043    3.3746 C   0  0  0  0  0  0  0  0  0  0  0  0
   -3.6329   -2.0517    0.8881 C   0  0  0  0  0  0  0  0  0  0  0  0
   -2.3433   -1.4745    0.8082 C   0  0  0  0  0  0  0  0  0  0  0  0
   -1.2453   -2.1567    0.2553 C   0  0  0  0  0  0  0  0  0  0  0  0
    0.0262   -1.5635    0.1785 C   0  0  0  0  0  0  0  0  0  0  0  0
    1.1213   -2.2438   -0.3807 C   0  0  0  0  0  0  0  0  0  0  0  0
    2.3918   -1.6482   -0.4650 C   0  0  0  0  0  0  0  0  0  0  0  0
    3.5046   -2.3123   -1.0331 C   0  0  0  0  0  0  0  0  0  0  0  0
    6.9470    0.5383    4.2836 H   0  0  0  0  0  0  0  0  0  0  0  0
    6.4472   -1.7846    3.5672 H   0  0  0  0  0  0  0  0  0  0  0  0
    5.5967   -2.2275    1.3214 H   0  0  0  0  0  0  0  0  0  0  0  0
    6.5836    2.4085    2.7295 H   0  0  0  0  0  0  0  0  0  0  0  0
    5.8922    3.2532    0.5736 H   0  0  0  0  0  0  0  0  0  0  0  0
    5.2224    4.1756   -1.5367 H   0  0  0  0  0  0  0  0  0  0  0  0
    4.5356    5.1609   -3.6971 H   0  0  0  0  0  0  0  0  0  0  0  0
    3.6720    4.8716   -5.9877 H   0  0  0  0  0  0  0  0  0  0  0  0
    3.1355    2.6020   -6.8396 H   0  0  0  0  0  0  0  0  0  0  0  0
    3.4658    0.6298   -5.4015 H   0  0  0  0  0  0  0  0  0  0  0  0
    4.1547   -0.3358   -3.2603 H   0  0  0  0  0  0  0  0  0  0  0  0
    6.8389   -2.0167   -1.8136 H   0  0  0  0  0  0  0  0  0  0  0  0
    6.4583   -4.3059   -2.6486 H   0  0  0  0  0  0  0  0  0  0  0  0
    4.2330   -5.3382   -2.4733 H   0  0  0  0  0  0  0  0  0  0  0  0
    1.8971   -5.2342   -1.8111 H   0  0  0  0  0  0  0  0  0  0  0  0
   -0.4681   -5.1539   -1.1706 H   0  0  0  0  0  0  0  0  0  0  0  0
   -2.8351   -5.0593   -0.5404 H   0  0  0  0  0  0  0  0  0  0  0  0
   -5.1877   -4.9948    0.0607 H   0  0  0  0  0  0  0  0  0  0  0  0
   -7.1245   -3.8147    1.0107 H   0  0  0  0  0  0  0  0  0  0  0  0
   -6.8792   -1.5221    1.8867 H   0  0  0  0  0  0  0  0  0  0  0  0
   -5.1887    0.0154   -0.7351 H   0  0  0  0  0  0  0  0  0  0  0  0
   -5.6205    0.9866   -2.9420 H   0  0  0  0  0  0  0  0  0  0  0  0
   -5.9356    2.9699   -4.3710 H   0  0  0  0  0  0  0  0  0  0  0  0
   -5.8126    5.2456   -3.3898 H   0  0  0  0  0  0  0  0  0  0  0  0
   -5.3751    5.5338   -0.9816 H   0  0  0  0  0  0  0  0  0  0  0  0
   -4.9399    4.5440    1.2389 H   0  0  0  0  0  0  0  0  0  0  0  0
   -4.5160    3.6175    3.4093 H   0  0  0  0  0  0  0  0  0  0  0  0
   -4.0925    2.7683    5.6322 H   0  0  0  0  0  0  0  0  0  0  0  0
   -3.7492    0.8889    7.1797 H   0  0  0  0  0  0  0  0  0  0  0  0
   -3.8220   -1.4431    6.3343 H   0  0  0  0  0  0  0  0  0  0  0  0
   -4.2399   -1.8863    3.9698 H   0  0  0  0  0  0  0  0  0  0  0  0
   -2.1855   -0.4634    1.1823 H   0  0  0  0  0  0  0  0  0  0  0  0
    0.1656   -0.5519    0.5573 H   0  0  0  0  0  0  0  0  0  0  0  0
    2.5130   -0.6364   -0.0797 H   0  0  0  0  0  0  0  0  0  0  0  0
  1  2  4  0
  2  3  4  0
  3  4  4  0
  4  5  4  0
  5  6  4  0
  5  7  4  0
  7  8  4  0
  8  9  4  0
  9 10  4  0
 10 11  4  0
 11 12  4  0
 12 13  4  0
 13 14  4  0
 14 15  4  0
 15 16  4  0
 16 17  4  0
 17 18  4  0
 18 19  1  0
 19 20  4  0
 20 21  4  0
 21 22  4  0
 22 23  4  0
 23 24  4  0
 24 25  4  0
 25 26  4  0
 26 27  4  0
 27 28  4  0
 28 29  4  0
 29 30  4  0
 30 31  4  0
 31 32  4  0
 32 33  4  0
 33 34  1  0
 34 35  4  0
 35 36  4  0
 36 37  4  0
 37 38  4  0
 38 39  4  0
 39 40  4  0
 40 41  4  0
 41 42  4  0
 42 43  4  0
 43 44  4  0
 44 45  4  0
 45 46  4  0
 46 47  4  0
 47 48  4  0
 48 49  4  0
 49 50  4  0
 50 51  4  0
 33 52  4  0
 52 53  4  0
 53 54  4  0
 54 55  4  0
 55 56  4  0
 56 57  4  0
 57 58  4  0
  6  1  4  0
 17  8  4  0
 58 19  4  0
 18  4  4  0
 58 23  4  0
 15 10  4  0
 56 25  4  0
 54 27  4  0
 52 29  4  0
 51 34  4  0
 44 35  4  0
 51 46  4  0
 42 37  4  0
  1 59  1  0
  2 60  1  0
  3 61  1  0
  6 62  1  0
  7 63  1  0
  9 64  1  0
 11 65  1  0
 12 66  1  0
 13 67  1  0
 14 68  1  0
 16 69  1  0
 20 70  1  0
 21 71  1  0
 22 72  1  0
 24 73  1  0
 26 74  1  0
 28 75  1  0
 30 76  1  0
 31 77  1  0
 32 78  1  0
 36 79  1  0
 38 80  1  0
 39 81  1  0
 40 82  1  0
 41 83  1  0
 43 84  1  0
 45 85  1  0
 47 86  1  0
 48 87  1  0
 49 88  1  0
 50 89  1  0
 53 90  1  0
 55 91  1  0
 57 92  1  0
M  END
