
     RDKit          3D

104118  0  0  0  0  0  0  0  0999 V2000
    6.0323    8.7800   -0.4530 C   0  0  0  0  0  0  0  0  0  0  0  0
    5.7397    8.6806   -1.8096 C   0  0  0  0  0  0  0  0  0  0  0  0
    5.5062    7.4294   -2.3823 C   0  0  0  0  0  0  0  0  0  0  0  0
    5.5625    6.2610   -1.6044 C   0  0  0  0  0  0  0  0  0  0  0  0
    5.3298    4.9946   -2.1659 C   0  0  0  0  0  0  0  0  0  0  0  0
    5.3861    3.8261   -1.3874 C   0  0  0  0  0  0  0  0  0  0  0  0
    5.1531    2.5595   -1.9492 C   0  0  0  0  0  0  0  0  0  0  0  0
    5.2083    1.3903   -1.1719 C   0  0  0  0  0  0  0  0  0  0  0  0
    4.9744    0.1240   -1.7346 C   0  0  0  0  0  0  0  0  0  0  0  0
    5.0285   -1.0449   -0.9576 C   0  0  0  0  0  0  0  0  0  0  0  0
    4.7927   -2.3114   -1.5204 C   0  0  0  0  0  0  0  0  0  0  0  0
    4.8423   -3.4779   -0.7413 C   0  0  0  0  0  0  0  0  0  0  0  0
    4.5855   -4.7952   -1.3443 C   0  0  0  0  0  0  0  0  0  0  0  0
    5.6709   -5.4910   -1.9069 C   0  0  0  0  0  0  0  0  0  0  0  0
    5.4945   -6.7422   -2.4876 C   0  0  0  0  0  0  0  0  0  0  0  0
    4.2281   -7.3188   -2.5147 C   0  0  0  0  0  0  0  0  0  0  0  0
    3.1210   -6.6551   -1.9644 C   0  0  0  0  0  0  0  0  0  0  0  0
    1.8496   -7.2535   -2.0005 C   0  0  0  0  0  0  0  0  0  0  0  0
    0.7199   -6.6188   -1.4609 C   0  0  0  0  0  0  0  0  0  0  0  0
   -0.5508   -7.2185   -1.4968 C   0  0  0  0  0  0  0  0  0  0  0  0
   -1.6795   -6.5783   -0.9565 C   0  0  0  0  0  0  0  0  0  0  0  0
   -2.9508   -7.1725   -0.9903 C   0  0  0  0  0  0  0  0  0  0  0  0
   -4.0803   -6.5323   -0.4515 C   0  0  0  0  0  0  0  0  0  0  0  0
   -5.3359   -7.1569   -0.5019 C   0  0  0  0  0  0  0  0  0  0  0  0
   -6.4651   -6.5382    0.0263 C   0  0  0  0  0  0  0  0  0  0  0  0
   -6.3528   -5.2821    0.6124 C   0  0  0  0  0  0  0  0  0  0  0  0
   -5.1116   -4.6238    0.6812 C   0  0  0  0  0  0  0  0  0  0  0  0
   -5.0648   -3.2943    1.3098 C   0  0  0  0  0  0  0  0  0  0  0  0
   -5.1344   -2.1300    0.5284 C   0  0  0  0  0  0  0  0  0  0  0  0
   -5.0857   -0.8523    1.1123 C   0  0  0  0  0  0  0  0  0  0  0  0
   -5.1514    0.3130    0.3307 C   0  0  0  0  0  0  0  0  0  0  0  0
   -5.1030    1.5906    0.9137 C   0  0  0  0  0  0  0  0  0  0  0  0
   -5.1700    2.7564    0.1321 C   0  0  0  0  0  0  0  0  0  0  0  0
   -5.1221    4.0344    0.7142 C   0  0  0  0  0  0  0  0  0  0  0  0
   -5.1896    5.1995   -0.0686 C   0  0  0  0  0  0  0  0  0  0  0  0
   -5.1418    6.4773    0.5132 C   0  0  0  0  0  0  0  0  0  0  0  0
   -5.2095    7.6424   -0.2689 C   0  0  0  0  0  0  0  0  0  0  0  0
   -5.1607    8.9048    0.3244 C   0  0  0  0  0  0  0  0  0  0  0  0
   -5.0437    9.0187    1.7061 C   0  0  0  0  0  0  0  0  0  0  0  0
   -4.9754    7.8704    2.4966 C   0  0  0  0  0  0  0  0  0  0  0  0
   -5.0232    6.5927    1.9144 C   0  0  0  0  0  0  0  0  0  0  0  0
   -4.9558    5.4273    2.6960 C   0  0  0  0  0  0  0  0  0  0  0  0
   -5.0039    4.1495    2.1129 C   0  0  0  0  0  0  0  0  0  0  0  0
   -4.9367    2.9836    2.8945 C   0  0  0  0  0  0  0  0  0  0  0  0
   -4.9851    1.7055    2.3124 C   0  0  0  0  0  0  0  0  0  0  0  0
   -4.9187    0.5401    3.0949 C   0  0  0  0  0  0  0  0  0  0  0  0
   -4.9677   -0.7371    2.5125 C   0  0  0  0  0  0  0  0  0  0  0  0
   -4.9015   -1.9012    3.2935 C   0  0  0  0  0  0  0  0  0  0  0  0
   -4.9507   -3.1643    2.6988 C   0  0  0  0  0  0  0  0  0  0  0  0
   -3.9518   -5.2546    0.1438 C   0  0  0  0  0  0  0  0  0  0  0  0
   -2.6623   -4.6718    0.1728 C   0  0  0  0  0  0  0  0  0  0  0  0
   -1.5334   -5.3116   -0.3670 C   0  0  0  0  0  0  0  0  0  0  0  0
   -0.2630   -4.7129   -0.3303 C   0  0  0  0  0  0  0  0  0  0  0  0
    0.8651   -5.3523   -0.8708 C   0  0  0  0  0  0  0  0  0  0  0  0
    2.1364   -4.7537   -0.8344 C   0  0  0  0  0  0  0  0  0  0  0  0
    3.2861   -5.3804   -1.3717 C   0  0  0  0  0  0  0  0  0  0  0  0
    5.1398   -3.3627    0.6217 C   0  0  0  0  0  0  0  0  0  0  0  0
    5.3774   -2.1112    1.1949 C   0  0  0  0  0  0  0  0  0  0  0  0
    5.3243   -0.9444    0.4175 C   0  0  0  0  0  0  0  0  0  0  0  0
    5.5586    0.3213    0.9795 C   0  0  0  0  0  0  0  0  0  0  0  0
    5.5040    1.4902    0.2014 C   0  0  0  0  0  0  0  0  0  0  0  0
    5.7375    2.7570    0.7632 C   0  0  0  0  0  0  0  0  0  0  0  0
    5.6821    3.9262   -0.0141 C   0  0  0  0  0  0  0  0  0  0  0  0
    5.9153    5.1927    0.5486 C   0  0  0  0  0  0  0  0  0  0  0  0
    5.8593    6.3616   -0.2287 C   0  0  0  0  0  0  0  0  0  0  0  0
    6.0919    7.6281    0.3330 C   0  0  0  0  0  0  0  0  0  0  0  0
    6.2144    9.7534   -0.0050 H   0  0  0  0  0  0  0  0  0  0  0  0
    5.6926    9.5761   -2.4237 H   0  0  0  0  0  0  0  0  0  0  0  0
    5.2789    7.3722   -3.4444 H   0  0  0  0  0  0  0  0  0  0  0  0
    5.1009    4.9177   -3.2272 H   0  0  0  0  0  0  0  0  0  0  0  0
    4.9241    2.4824   -3.0107 H   0  0  0  0  0  0  0  0  0  0  0  0
    4.7454    0.0468   -2.7962 H   0  0  0  0  0  0  0  0  0  0  0  0
    4.5607   -2.3965   -2.5811 H   0  0  0  0  0  0  0  0  0  0  0  0
    6.6663   -5.0502   -1.8895 H   0  0  0  0  0  0  0  0  0  0  0  0
    6.3430   -7.2678   -2.9175 H   0  0  0  0  0  0  0  0  0  0  0  0
    4.1107   -8.2991   -2.9724 H   0  0  0  0  0  0  0  0  0  0  0  0
    1.7363   -8.2350   -2.4582 H   0  0  0  0  0  0  0  0  0  0  0  0
   -0.6632   -8.2003   -1.9529 H   0  0  0  0  0  0  0  0  0  0  0  0
   -3.0632   -8.1548   -1.4462 H   0  0  0  0  0  0  0  0  0  0  0  0
   -5.4440   -8.1393   -0.9572 H   0  0  0  0  0  0  0  0  0  0  0  0
   -7.4313   -7.0335   -0.0201 H   0  0  0  0  0  0  0  0  0  0  0  0
   -7.2432   -4.8053    1.0190 H   0  0  0  0  0  0  0  0  0  0  0  0
   -5.2241   -2.2269   -0.5528 H   0  0  0  0  0  0  0  0  0  0  0  0
   -5.2420    0.2235   -0.7506 H   0  0  0  0  0  0  0  0  0  0  0  0
   -5.2613    2.6675   -0.9491 H   0  0  0  0  0  0  0  0  0  0  0  0
   -5.2809    5.1109   -1.1496 H   0  0  0  0  0  0  0  0  0  0  0  0
   -5.3011    7.5733   -1.3505 H   0  0  0  0  0  0  0  0  0  0  0  0
   -5.2140    9.7978   -0.2931 H   0  0  0  0  0  0  0  0  0  0  0  0
   -5.0053   10.0007    2.1704 H   0  0  0  0  0  0  0  0  0  0  0  0
   -4.8840    7.9801    3.5749 H   0  0  0  0  0  0  0  0  0  0  0  0
   -4.8643    5.5169    3.7769 H   0  0  0  0  0  0  0  0  0  0  0  0
   -4.8453    3.0725    3.9756 H   0  0  0  0  0  0  0  0  0  0  0  0
   -4.8278    0.6289    4.1761 H   0  0  0  0  0  0  0  0  0  0  0  0
   -4.8098   -1.8350    4.3754 H   0  0  0  0  0  0  0  0  0  0  0  0
   -4.8948   -4.0516    3.3265 H   0  0  0  0  0  0  0  0  0  0  0  0
   -2.5297   -3.6916    0.6290 H   0  0  0  0  0  0  0  0  0  0  0  0
   -0.1503   -3.7310    0.1269 H   0  0  0  0  0  0  0  0  0  0  0  0
    2.2298   -3.7713   -0.3733 H   0  0  0  0  0  0  0  0  0  0  0  0
    5.1835   -4.2525    1.2468 H   0  0  0  0  0  0  0  0  0  0  0  0
    5.6037   -2.0563    2.2575 H   0  0  0  0  0  0  0  0  0  0  0  0
    5.7869    0.3980    2.0410 H   0  0  0  0  0  0  0  0  0  0  0  0
    5.9661    2.8345    1.8247 H   0  0  0  0  0  0  0  0  0  0  0  0
    6.1440    5.2707    1.6099 H   0  0  0  0  0  0  0  0  0  0  0  0
    6.3220    7.7263    1.3915 H   0  0  0  0  0  0  0  0  0  0  0  0
  1  2  4  0
  2  3  4  0
  3  4  4  0
  4  5  4  0
  5  6  4  0
  6  7  4  0
  7  8  4  0
  8  9  4  0
  9 10  4  0
 10 11  4  0
 11 12  4  0
 12 13  1  0
 13 14  4  0
 14 15  4  0
 15 16  4  0
 16 17  4  0
 17 18  4  0
 18 19  4  0
 19 20  4  0
 20 21  4  0
 21 22  4  0
 22 23  4  0
 23 24  4  0
 24 25  4  0
 25 26  4  0
 26 27  4  0
 27 28  1  0
 28 29  4  0
 29 30  4  0
 30 31  4  0
 31 32  4  0
 32 33  4  0
 33 34  4  0
 34 35  4  0
 35 36  4  0
 36 37  4  0
 37 38  4  0
 38 39  4  0
 39 40  4  0
 40 41  4  0
 41 42  4  0
 42 43  4  0
 43 44  4  0
 44 45  4  0
 45 46  4  0
 46 47  4  0
 47 48  4  0
 48 49  4  0
 27 50  4  0
 50 51  4  0
 51 52  4  0
 52 53  4  0
 53 54  4  0
 54 55  4  0
 55 56  4  0
 12 57  4  0
 57 58  4  0
 58 59  4  0
 59 60  4  0
 60 61  4  0
 61 62  4  0
 62 63  4  0
 63 64  4  0
 64 65  4  0
 65 66  4  0
 66  1  4  0
 65  4  4  0
 63  6  4  0
 61  8  4  0
 59 10  4  0
 56 13  4  0
 56 17  4  0
 54 19  4  0
 52 21  4  0
 50 23  4  0
 49 28  4  0
 47 30  4  0
 45 32  4  0
 43 34  4  0
 41 36  4  0
  1 67  1  0
  2 68  1  0
  3 69  1  0
  5 70  1  0
  7 71  1  0
  9 72  1  0
 11 73  1  0
 14 74  1  0
 15 75  1  0
 16 76  1  0
 18 77  1  0
 20 78  1  0
 22 79  1  0
 24 80  1  0
 25 81  1  0
 26 82  1  0
 29 83  1  0
 31 84  1  0
 33 85  1  0
 35 86  1  0
 37 87  1  0
 38 88  1  0
 39 89  1  0
 40 90  1  0
 42 91  1  0
 44 92  1  0
 46 93  1  0
 48 94  1  0
 49 95  1  0
 51 96  1  0
 53 97  1  0
 55 98  1  0
 57 99  1  0
 58100  1  0
 60101  1  0
 62102  1  0
 64103  1  0
 66104  1  0
M  END
