
     RDKit          3D

104118  0  0  0  0  0  0  0  0999 V2000
    8.1989   -2.1258   -5.4447 C   0  0  0  0  0  0  0  0  0  0  0  0
    8.0911   -3.1856   -4.5496 C   0  0  0  0  0  0  0  0  0  0  0  0
    7.5475   -2.9741   -3.2816 C   0  0  0  0  0  0  0  0  0  0  0  0
    7.1049   -1.6987   -2.8931 C   0  0  0  0  0  0  0  0  0  0  0  0
    6.5558   -1.4686   -1.6209 C   0  0  0  0  0  0  0  0  0  0  0  0
    6.1136   -0.1921   -1.2334 C   0  0  0  0  0  0  0  0  0  0  0  0
    5.5651    0.0417    0.0399 C   0  0  0  0  0  0  0  0  0  0  0  0
    5.1035    1.3168    0.4544 C   0  0  0  0  0  0  0  0  0  0  0  0
    5.2159    2.3740   -0.4717 C   0  0  0  0  0  0  0  0  0  0  0  0
    5.7698    2.1458   -1.7443 C   0  0  0  0  0  0  0  0  0  0  0  0
    6.2194    0.8765   -2.1377 C   0  0  0  0  0  0  0  0  0  0  0  0
    6.7690    0.6502   -3.4115 C   0  0  0  0  0  0  0  0  0  0  0  0
    7.2137   -0.6241   -3.8008 C   0  0  0  0  0  0  0  0  0  0  0  0
    7.7630   -0.8529   -5.0734 C   0  0  0  0  0  0  0  0  0  0  0  0
    4.7728    3.6557   -0.1219 C   0  0  0  0  0  0  0  0  0  0  0  0
    4.2090    3.9290    1.1301 C   0  0  0  0  0  0  0  0  0  0  0  0
    3.7734    5.2307    1.4347 C   0  0  0  0  0  0  0  0  0  0  0  0
    3.2053    5.5289    2.6713 C   0  0  0  0  0  0  0  0  0  0  0  0
    3.0645    4.5272    3.6198 C   0  0  0  0  0  0  0  0  0  0  0  0
    3.4946    3.2306    3.3290 C   0  0  0  0  0  0  0  0  0  0  0  0
    4.0794    2.8938    2.0823 C   0  0  0  0  0  0  0  0  0  0  0  0
    4.5346    1.5789    1.7433 C   0  0  0  0  0  0  0  0  0  0  0  0
    4.4251    0.4802    2.7394 C   0  0  0  0  0  0  0  0  0  0  0  0
    5.4811    0.3093    3.6552 C   0  0  0  0  0  0  0  0  0  0  0  0
    5.4431   -0.7009    4.6091 C   0  0  0  0  0  0  0  0  0  0  0  0
    4.3491   -1.5597    4.6614 C   0  0  0  0  0  0  0  0  0  0  0  0
    3.2791   -1.4232    3.7637 C   0  0  0  0  0  0  0  0  0  0  0  0
    2.1872   -2.3056    3.8281 C   0  0  0  0  0  0  0  0  0  0  0  0
    1.1034   -2.2043    2.9419 C   0  0  0  0  0  0  0  0  0  0  0  0
    0.0162   -3.0936    3.0010 C   0  0  0  0  0  0  0  0  0  0  0  0
   -1.0633   -2.9922    2.1067 C   0  0  0  0  0  0  0  0  0  0  0  0
   -2.1481   -3.8817    2.1570 C   0  0  0  0  0  0  0  0  0  0  0  0
   -3.2269   -3.7823    1.2615 C   0  0  0  0  0  0  0  0  0  0  0  0
   -4.2949   -4.6894    1.3397 C   0  0  0  0  0  0  0  0  0  0  0  0
   -5.3718   -4.6070    0.4617 C   0  0  0  0  0  0  0  0  0  0  0  0
   -5.3946   -3.6132   -0.5099 C   0  0  0  0  0  0  0  0  0  0  0  0
   -4.3419   -2.6846   -0.6195 C   0  0  0  0  0  0  0  0  0  0  0  0
   -4.4317   -1.6455   -1.6791 C   0  0  0  0  0  0  0  0  0  0  0  0
   -3.8867   -1.9053   -2.9778 C   0  0  0  0  0  0  0  0  0  0  0  0
   -3.2346   -3.1127   -3.3340 C   0  0  0  0  0  0  0  0  0  0  0  0
   -2.7129   -3.3243   -4.6122 C   0  0  0  0  0  0  0  0  0  0  0  0
   -2.8291   -2.3343   -5.5763 C   0  0  0  0  0  0  0  0  0  0  0  0
   -3.4642   -1.1356   -5.2586 C   0  0  0  0  0  0  0  0  0  0  0  0
   -3.9909   -0.9102   -3.9745 C   0  0  0  0  0  0  0  0  0  0  0  0
   -4.6197    0.3057   -3.6803 C   0  0  0  0  0  0  0  0  0  0  0  0
   -5.1525    0.5774   -2.4138 C   0  0  0  0  0  0  0  0  0  0  0  0
   -5.7697    1.8160   -2.1628 C   0  0  0  0  0  0  0  0  0  0  0  0
   -6.3098    2.1319   -0.9072 C   0  0  0  0  0  0  0  0  0  0  0  0
   -6.9241    3.3716   -0.6585 C   0  0  0  0  0  0  0  0  0  0  0  0
   -7.4592    3.6835    0.6023 C   0  0  0  0  0  0  0  0  0  0  0  0
   -8.0728    4.9220    0.8535 C   0  0  0  0  0  0  0  0  0  0  0  0
   -8.5978    5.2165    2.1128 C   0  0  0  0  0  0  0  0  0  0  0  0
   -8.5164    4.2774    3.1363 C   0  0  0  0  0  0  0  0  0  0  0  0
   -7.9103    3.0422    2.9019 C   0  0  0  0  0  0  0  0  0  0  0  0
   -7.3773    2.7311    1.6399 C   0  0  0  0  0  0  0  0  0  0  0  0
   -6.7641    1.4928    1.3874 C   0  0  0  0  0  0  0  0  0  0  0  0
   -6.2306    1.1831    0.1245 C   0  0  0  0  0  0  0  0  0  0  0  0
   -5.6166   -0.0556   -0.1317 C   0  0  0  0  0  0  0  0  0  0  0  0
   -5.0657   -0.3925   -1.3943 C   0  0  0  0  0  0  0  0  0  0  0  0
   -3.2369   -2.7648    0.2782 C   0  0  0  0  0  0  0  0  0  0  0  0
   -2.1371   -1.8755    0.2422 C   0  0  0  0  0  0  0  0  0  0  0  0
   -1.0575   -1.9764    1.1362 C   0  0  0  0  0  0  0  0  0  0  0  0
    0.0276   -1.0859    1.0796 C   0  0  0  0  0  0  0  0  0  0  0  0
    1.1091   -1.1899    1.9700 C   0  0  0  0  0  0  0  0  0  0  0  0
    2.1988   -0.3042    1.9083 C   0  0  0  0  0  0  0  0  0  0  0  0
    3.3021   -0.3972    2.7893 C   0  0  0  0  0  0  0  0  0  0  0  0
    8.6216   -2.2883   -6.4327 H   0  0  0  0  0  0  0  0  0  0  0  0
    8.4294   -4.1777   -4.8368 H   0  0  0  0  0  0  0  0  0  0  0  0
    7.4709   -3.8146   -2.5955 H   0  0  0  0  0  0  0  0  0  0  0  0
    6.4684   -2.2973   -0.9202 H   0  0  0  0  0  0  0  0  0  0  0  0
    5.4928   -0.8016    0.7256 H   0  0  0  0  0  0  0  0  0  0  0  0
    5.8508    2.9742   -2.4467 H   0  0  0  0  0  0  0  0  0  0  0  0
    6.8512    1.4791   -4.1121 H   0  0  0  0  0  0  0  0  0  0  0  0
    7.8550   -0.0372   -5.7870 H   0  0  0  0  0  0  0  0  0  0  0  0
    4.8671    4.4643   -0.8460 H   0  0  0  0  0  0  0  0  0  0  0  0
    3.8736    6.0293    0.7025 H   0  0  0  0  0  0  0  0  0  0  0  0
    2.8728    6.5399    2.8901 H   0  0  0  0  0  0  0  0  0  0  0  0
    2.6204    4.7471    4.5870 H   0  0  0  0  0  0  0  0  0  0  0  0
    3.3616    2.4722    4.0987 H   0  0  0  0  0  0  0  0  0  0  0  0
    6.3420    0.9750    3.6201 H   0  0  0  0  0  0  0  0  0  0  0  0
    6.2653   -0.8198    5.3098 H   0  0  0  0  0  0  0  0  0  0  0  0
    4.3391   -2.3454    5.4143 H   0  0  0  0  0  0  0  0  0  0  0  0
    2.1827   -3.0915    4.5815 H   0  0  0  0  0  0  0  0  0  0  0  0
    0.0120   -3.8795    3.7539 H   0  0  0  0  0  0  0  0  0  0  0  0
   -2.1518   -4.6688    2.9092 H   0  0  0  0  0  0  0  0  0  0  0  0
   -4.2955   -5.4746    2.0931 H   0  0  0  0  0  0  0  0  0  0  0  0
   -6.1923   -5.3159    0.5348 H   0  0  0  0  0  0  0  0  0  0  0  0
   -6.2410   -3.5564   -1.1926 H   0  0  0  0  0  0  0  0  0  0  0  0
   -3.1199   -3.9134   -2.6053 H   0  0  0  0  0  0  0  0  0  0  0  0
   -2.2165   -4.2622   -4.8467 H   0  0  0  0  0  0  0  0  0  0  0  0
   -2.4262   -2.4910   -6.5731 H   0  0  0  0  0  0  0  0  0  0  0  0
   -3.5443   -0.3703   -6.0281 H   0  0  0  0  0  0  0  0  0  0  0  0
   -4.6934    1.0637   -4.4593 H   0  0  0  0  0  0  0  0  0  0  0  0
   -5.8291    2.5532   -2.9620 H   0  0  0  0  0  0  0  0  0  0  0  0
   -6.9858    4.1064   -1.4590 H   0  0  0  0  0  0  0  0  0  0  0  0
   -8.1460    5.6688    0.0661 H   0  0  0  0  0  0  0  0  0  0  0  0
   -9.0695    6.1789    2.2932 H   0  0  0  0  0  0  0  0  0  0  0  0
   -8.9241    4.5046    4.1178 H   0  0  0  0  0  0  0  0  0  0  0  0
   -7.8558    2.3207    3.7140 H   0  0  0  0  0  0  0  0  0  0  0  0
   -6.7001    0.7571    2.1874 H   0  0  0  0  0  0  0  0  0  0  0  0
   -5.5638   -0.7761    0.6835 H   0  0  0  0  0  0  0  0  0  0  0  0
   -2.1171   -1.0798   -0.5017 H   0  0  0  0  0  0  0  0  0  0  0  0
    0.0319   -0.2991    0.3263 H   0  0  0  0  0  0  0  0  0  0  0  0
    2.1866    0.4752    1.1471 H   0  0  0  0  0  0  0  0  0  0  0  0
  1  2  4  0
  2  3  4  0
  3  4  4  0
  4  5  4  0
  5  6  4  0
  6  7  4  0
  7  8  4  0
  8  9  4  0
  9 10  4  0
 10 11  4  0
 11 12  4  0
 12 13  4  0
 13 14  4  0
  9 15  4  0
 15 16  4  0
 16 17  4  0
 17 18  4  0
 18 19  4  0
 19 20  4  0
 20 21  4  0
 21 22  4  0
 22 23  1  0
 23 24  4  0
 24 25  4  0
 25 26  4  0
 26 27  4  0
 27 28  4  0
 28 29  4  0
 29 30  4  0
 30 31  4  0
 31 32  4  0
 32 33  4  0
 33 34  4  0
 34 35  4  0
 35 36  4  0
 36 37  4  0
 37 38  1  0
 38 39  4  0
 39 40  4  0
 40 41  4  0
 41 42  4  0
 42 43  4  0
 43 44  4  0
 44 45  4  0
 45 46  4  0
 46 47  4  0
 47 48  4  0
 48 49  4  0
 49 50  4  0
 50 51  4  0
 51 52  4  0
 52 53  4  0
 53 54  4  0
 54 55  4  0
 55 56  4  0
 56 57  4  0
 57 58  4  0
 58 59  4  0
 37 60  4  0
 60 61  4  0
 61 62  4  0
 62 63  4  0
 63 64  4  0
 64 65  4  0
 65 66  4  0
 14  1  4  0
 21 16  4  0
 66 23  4  0
 13  4  4  0
 66 27  4  0
 11  6  4  0
 64 29  4  0
 22  8  4  0
 62 31  4  0
 60 33  4  0
 59 38  4  0
 44 39  4  0
 59 46  4  0
 57 48  4  0
 55 50  4  0
  1 67  1  0
  2 68  1  0
  3 69  1  0
  5 70  1  0
  7 71  1  0
 10 72  1  0
 12 73  1  0
 14 74  1  0
 15 75  1  0
 17 76  1  0
 18 77  1  0
 19 78  1  0
 20 79  1  0
 24 80  1  0
 25 81  1  0
 26 82  1  0
 28 83  1  0
 30 84  1  0
 32 85  1  0
 34 86  1  0
 35 87  1  0
 36 88  1  0
 40 89  1  0
 41 90  1  0
 42 91  1  0
 43 92  1  0
 45 93  1  0
 47 94  1  0
 49 95  1  0
 51 96  1  0
 52 97  1  0
 53 98  1  0
 54 99  1  0
 56100  1  0
 58101  1  0
 61102  1  0
 63103  1  0
 65104  1  0
M  END
