
     RDKit          3D

104118  0  0  0  0  0  0  0  0999 V2000
  -15.4476   -0.1662    1.0633 C   0  0  0  0  0  0  0  0  0  0  0  0
  -14.9725    0.9648    0.4074 C   0  0  0  0  0  0  0  0  0  0  0  0
  -13.6852    0.9671   -0.1319 C   0  0  0  0  0  0  0  0  0  0  0  0
  -12.8559   -0.1625   -0.0223 C   0  0  0  0  0  0  0  0  0  0  0  0
  -11.5547   -0.1792   -0.5597 C   0  0  0  0  0  0  0  0  0  0  0  0
  -10.6936   -1.3034   -0.4656 C   0  0  0  0  0  0  0  0  0  0  0  0
  -11.2073   -2.4385    0.2079 C   0  0  0  0  0  0  0  0  0  0  0  0
  -12.5058   -2.4272    0.7466 C   0  0  0  0  0  0  0  0  0  0  0  0
  -13.3375   -1.3046    0.6408 C   0  0  0  0  0  0  0  0  0  0  0  0
  -14.6354   -1.2948    1.1797 C   0  0  0  0  0  0  0  0  0  0  0  0
  -10.4204   -3.5849    0.3417 C   0  0  0  0  0  0  0  0  0  0  0  0
   -9.1311   -3.6306   -0.1795 C   0  0  0  0  0  0  0  0  0  0  0  0
   -8.5899   -2.5312   -0.8501 C   0  0  0  0  0  0  0  0  0  0  0  0
   -7.2840   -2.6121   -1.3642 C   0  0  0  0  0  0  0  0  0  0  0  0
   -6.6923   -1.5397   -2.0447 C   0  0  0  0  0  0  0  0  0  0  0  0
   -5.3858   -1.6230   -2.5582 C   0  0  0  0  0  0  0  0  0  0  0  0
   -4.7976   -0.5443   -3.2364 C   0  0  0  0  0  0  0  0  0  0  0  0
   -3.4309   -0.6479   -3.7710 C   0  0  0  0  0  0  0  0  0  0  0  0
   -3.2726   -1.0617   -5.1064 C   0  0  0  0  0  0  0  0  0  0  0  0
   -2.0088   -1.1814   -5.6735 C   0  0  0  0  0  0  0  0  0  0  0  0
   -0.8808   -0.8881   -4.9132 C   0  0  0  0  0  0  0  0  0  0  0  0
   -0.9980   -0.4717   -3.5785 C   0  0  0  0  0  0  0  0  0  0  0  0
    0.1537   -0.1791   -2.8283 C   0  0  0  0  0  0  0  0  0  0  0  0
    0.0765    0.2398   -1.4911 C   0  0  0  0  0  0  0  0  0  0  0  0
    1.2303    0.5312   -0.7433 C   0  0  0  0  0  0  0  0  0  0  0  0
    1.1508    0.9486    0.5962 C   0  0  0  0  0  0  0  0  0  0  0  0
    2.3041    1.2393    1.3465 C   0  0  0  0  0  0  0  0  0  0  0  0
    2.2462    1.6569    2.6981 C   0  0  0  0  0  0  0  0  0  0  0  0
    3.4003    1.9538    3.4814 C   0  0  0  0  0  0  0  0  0  0  0  0
    4.7672    1.8382    2.9480 C   0  0  0  0  0  0  0  0  0  0  0  0
    5.4467    2.9647    2.4711 C   0  0  0  0  0  0  0  0  0  0  0  0
    6.7449    2.8515    1.9659 C   0  0  0  0  0  0  0  0  0  0  0  0
    7.3961    1.6079    1.9255 C   0  0  0  0  0  0  0  0  0  0  0  0
    8.7033    1.4726    1.4186 C   0  0  0  0  0  0  0  0  0  0  0  0
    9.3872    0.2298    1.3632 C   0  0  0  0  0  0  0  0  0  0  0  0
    8.6843   -0.8989    1.8507 C   0  0  0  0  0  0  0  0  0  0  0  0
    7.3798   -0.7687    2.3586 C   0  0  0  0  0  0  0  0  0  0  0  0
    6.7257    0.4696    2.4029 C   0  0  0  0  0  0  0  0  0  0  0  0
    5.4202    0.5962    2.9113 C   0  0  0  0  0  0  0  0  0  0  0  0
    9.2874   -2.1586    1.8295 C   0  0  0  0  0  0  0  0  0  0  0  0
   10.5769   -2.3247    1.3339 C   0  0  0  0  0  0  0  0  0  0  0  0
   11.3025   -1.2359    0.8450 C   0  0  0  0  0  0  0  0  0  0  0  0
   12.6031   -1.4411    0.3521 C   0  0  0  0  0  0  0  0  0  0  0  0
   13.3761   -0.3859   -0.1500 C   0  0  0  0  0  0  0  0  0  0  0  0
   14.6762   -0.5936   -0.6424 C   0  0  0  0  0  0  0  0  0  0  0  0
   15.4298    0.4709   -1.1381 C   0  0  0  0  0  0  0  0  0  0  0  0
   14.8934    1.7542   -1.1476 C   0  0  0  0  0  0  0  0  0  0  0  0
   13.6033    1.9728   -0.6611 C   0  0  0  0  0  0  0  0  0  0  0  0
   12.8320    0.9102   -0.1585 C   0  0  0  0  0  0  0  0  0  0  0  0
   11.5285    1.1101    0.3367 C   0  0  0  0  0  0  0  0  0  0  0  0
   10.7256    0.0578    0.8498 C   0  0  0  0  0  0  0  0  0  0  0  0
    3.2427    2.3701    4.8162 C   0  0  0  0  0  0  0  0  0  0  0  0
    1.9791    2.4932    5.3836 C   0  0  0  0  0  0  0  0  0  0  0  0
    0.8504    2.2013    4.6239 C   0  0  0  0  0  0  0  0  0  0  0  0
    0.9662    1.7849    3.2890 C   0  0  0  0  0  0  0  0  0  0  0  0
   -0.1864    1.4956    2.5384 C   0  0  0  0  0  0  0  0  0  0  0  0
   -0.1106    1.0783    1.2004 C   0  0  0  0  0  0  0  0  0  0  0  0
   -1.2647    0.7882    0.4521 C   0  0  0  0  0  0  0  0  0  0  0  0
   -1.1853    0.3700   -0.8875 C   0  0  0  0  0  0  0  0  0  0  0  0
   -2.3381    0.0786   -1.6386 C   0  0  0  0  0  0  0  0  0  0  0  0
   -2.2783   -0.3460   -2.9879 C   0  0  0  0  0  0  0  0  0  0  0  0
   -5.5420    0.6293   -3.4007 C   0  0  0  0  0  0  0  0  0  0  0  0
   -6.8413    0.7233   -2.8960 C   0  0  0  0  0  0  0  0  0  0  0  0
   -7.4279   -0.3551   -2.2148 C   0  0  0  0  0  0  0  0  0  0  0  0
   -8.7353   -0.2790   -1.6983 C   0  0  0  0  0  0  0  0  0  0  0  0
   -9.3565   -1.3508   -1.0058 C   0  0  0  0  0  0  0  0  0  0  0  0
  -16.4493   -0.1716    1.4847 H   0  0  0  0  0  0  0  0  0  0  0  0
  -15.6019    1.8458    0.3147 H   0  0  0  0  0  0  0  0  0  0  0  0
  -13.3319    1.8611   -0.6409 H   0  0  0  0  0  0  0  0  0  0  0  0
  -11.2144    0.7202   -1.0655 H   0  0  0  0  0  0  0  0  0  0  0  0
  -12.8787   -3.3121    1.2602 H   0  0  0  0  0  0  0  0  0  0  0  0
  -15.0231   -2.1702    1.6958 H   0  0  0  0  0  0  0  0  0  0  0  0
  -10.8038   -4.4631    0.8572 H   0  0  0  0  0  0  0  0  0  0  0  0
   -8.5516   -4.5430   -0.0533 H   0  0  0  0  0  0  0  0  0  0  0  0
   -6.7141   -3.5308   -1.2319 H   0  0  0  0  0  0  0  0  0  0  0  0
   -4.8121   -2.5396   -2.4289 H   0  0  0  0  0  0  0  0  0  0  0  0
   -4.1483   -1.2948   -5.7099 H   0  0  0  0  0  0  0  0  0  0  0  0
   -1.9034   -1.5030   -6.7061 H   0  0  0  0  0  0  0  0  0  0  0  0
    0.0997   -0.9879   -5.3745 H   0  0  0  0  0  0  0  0  0  0  0  0
    1.1326   -0.2794   -3.2947 H   0  0  0  0  0  0  0  0  0  0  0  0
    2.2081    0.4308   -1.2115 H   0  0  0  0  0  0  0  0  0  0  0  0
    3.2738    1.1373    0.8611 H   0  0  0  0  0  0  0  0  0  0  0  0
    4.9636    3.9397    2.4864 H   0  0  0  0  0  0  0  0  0  0  0  0
    7.2443    3.7466    1.6015 H   0  0  0  0  0  0  0  0  0  0  0  0
    9.1934    2.3733    1.0587 H   0  0  0  0  0  0  0  0  0  0  0  0
    6.8601   -1.6519    2.7277 H   0  0  0  0  0  0  0  0  0  0  0  0
    4.8977   -0.2840    3.2836 H   0  0  0  0  0  0  0  0  0  0  0  0
    8.7566   -3.0330    2.2009 H   0  0  0  0  0  0  0  0  0  0  0  0
   11.0095   -3.3232    1.3352 H   0  0  0  0  0  0  0  0  0  0  0  0
   13.0247   -2.4452    0.3587 H   0  0  0  0  0  0  0  0  0  0  0  0
   15.1113   -1.5904   -0.6426 H   0  0  0  0  0  0  0  0  0  0  0  0
   16.4338    0.2966   -1.5159 H   0  0  0  0  0  0  0  0  0  0  0  0
   15.4771    2.5861   -1.5329 H   0  0  0  0  0  0  0  0  0  0  0  0
   13.2018    2.9836   -0.6774 H   0  0  0  0  0  0  0  0  0  0  0  0
   11.1395    2.1244    0.3159 H   0  0  0  0  0  0  0  0  0  0  0  0
    4.1188    2.5969    5.4214 H   0  0  0  0  0  0  0  0  0  0  0  0
    1.8740    2.8143    6.4166 H   0  0  0  0  0  0  0  0  0  0  0  0
   -0.1298    2.3025    5.0857 H   0  0  0  0  0  0  0  0  0  0  0  0
   -1.1648    1.5972    3.0053 H   0  0  0  0  0  0  0  0  0  0  0  0
   -2.2426    0.8889    0.9201 H   0  0  0  0  0  0  0  0  0  0  0  0
   -3.3088    0.1863   -1.1563 H   0  0  0  0  0  0  0  0  0  0  0  0
   -5.1094    1.4805   -3.9228 H   0  0  0  0  0  0  0  0  0  0  0  0
   -7.3931    1.6497   -3.0404 H   0  0  0  0  0  0  0  0  0  0  0  0
   -9.2756    0.6517   -1.8479 H   0  0  0  0  0  0  0  0  0  0  0  0
  1  2  4  0
  2  3  4  0
  3  4  4  0
  4  5  4  0
  5  6  4  0
  6  7  4  0
  7  8  4  0
  8  9  4  0
  9 10  4  0
  7 11  4  0
 11 12  4  0
 12 13  4  0
 13 14  4  0
 14 15  4  0
 15 16  4  0
 16 17  4  0
 17 18  1  0
 18 19  4  0
 19 20  4  0
 20 21  4  0
 21 22  4  0
 22 23  4  0
 23 24  4  0
 24 25  4  0
 25 26  4  0
 26 27  4  0
 27 28  4  0
 28 29  4  0
 29 30  1  0
 30 31  4  0
 31 32  4  0
 32 33  4  0
 33 34  4  0
 34 35  4  0
 35 36  4  0
 36 37  4  0
 37 38  4  0
 38 39  4  0
 36 40  4  0
 40 41  4  0
 41 42  4  0
 42 43  4  0
 43 44  4  0
 44 45  4  0
 45 46  4  0
 46 47  4  0
 47 48  4  0
 48 49  4  0
 49 50  4  0
 50 51  4  0
 29 52  4  0
 52 53  4  0
 53 54  4  0
 54 55  4  0
 55 56  4  0
 56 57  4  0
 57 58  4  0
 58 59  4  0
 59 60  4  0
 60 61  4  0
 17 62  4  0
 62 63  4  0
 63 64  4  0
 64 65  4  0
 65 66  4  0
 10  1  4  0
 66 13  4  0
  9  4  4  0
 64 15  4  0
 66  6  4  0
 61 18  4  0
 61 22  4  0
 59 24  4  0
 57 26  4  0
 55 28  4  0
 39 30  4  0
 51 42  4  0
 38 33  4  0
 49 44  4  0
 51 35  4  0
  1 67  1  0
  2 68  1  0
  3 69  1  0
  5 70  1  0
  8 71  1  0
 10 72  1  0
 11 73  1  0
 12 74  1  0
 14 75  1  0
 16 76  1  0
 19 77  1  0
 20 78  1  0
 21 79  1  0
 23 80  1  0
 25 81  1  0
 27 82  1  0
 31 83  1  0
 32 84  1  0
 34 85  1  0
 37 86  1  0
 39 87  1  0
 40 88  1  0
 41 89  1  0
 43 90  1  0
 45 91  1  0
 46 92  1  0
 47 93  1  0
 48 94  1  0
 50 95  1  0
 52 96  1  0
 53 97  1  0
 54 98  1  0
 56 99  1  0
 58100  1  0
 60101  1  0
 62102  1  0
 63103  1  0
 65104  1  0
M  END
