
     RDKit          3D

104118  0  0  0  0  0  0  0  0999 V2000
    7.0869   -1.9040   -4.8729 C   0  0  0  0  0  0  0  0  0  0  0  0
    5.9851   -2.6126   -4.4057 C   0  0  0  0  0  0  0  0  0  0  0  0
    5.5922   -2.4862   -3.0721 C   0  0  0  0  0  0  0  0  0  0  0  0
    6.2975   -1.6512   -2.1871 C   0  0  0  0  0  0  0  0  0  0  0  0
    5.9200   -1.5120   -0.8336 C   0  0  0  0  0  0  0  0  0  0  0  0
    6.5916   -0.6916    0.1168 C   0  0  0  0  0  0  0  0  0  0  0  0
    7.6976    0.0211   -0.4239 C   0  0  0  0  0  0  0  0  0  0  0  0
    8.0883   -0.1073   -1.7699 C   0  0  0  0  0  0  0  0  0  0  0  0
    7.4046   -0.9380   -2.6610 C   0  0  0  0  0  0  0  0  0  0  0  0
    7.7935   -1.0698   -4.0061 C   0  0  0  0  0  0  0  0  0  0  0  0
    8.4353    0.8836    0.3751 C   0  0  0  0  0  0  0  0  0  0  0  0
    8.1050    1.0665    1.7065 C   0  0  0  0  0  0  0  0  0  0  0  0
    7.0376    0.3848    2.2909 C   0  0  0  0  0  0  0  0  0  0  0  0
    6.8065    0.6522    3.6459 C   0  0  0  0  0  0  0  0  0  0  0  0
    5.7867    0.0395    4.3677 C   0  0  0  0  0  0  0  0  0  0  0  0
    5.6049    0.3525    5.7284 C   0  0  0  0  0  0  0  0  0  0  0  0
    4.5965   -0.2476    6.4764 C   0  0  0  0  0  0  0  0  0  0  0  0
    3.7593   -1.1691    5.8703 C   0  0  0  0  0  0  0  0  0  0  0  0
    3.9382   -1.4840    4.5204 C   0  0  0  0  0  0  0  0  0  0  0  0
    4.9554   -0.8897    3.7230 C   0  0  0  0  0  0  0  0  0  0  0  0
    5.1794   -1.1784    2.3213 C   0  0  0  0  0  0  0  0  0  0  0  0
    4.2861   -2.1988    1.7143 C   0  0  0  0  0  0  0  0  0  0  0  0
    4.7059   -3.5443    1.7374 C   0  0  0  0  0  0  0  0  0  0  0  0
    3.9007   -4.5519    1.2189 C   0  0  0  0  0  0  0  0  0  0  0  0
    2.6584   -4.2334    0.6772 C   0  0  0  0  0  0  0  0  0  0  0  0
    2.2003   -2.9070    0.6458 C   0  0  0  0  0  0  0  0  0  0  0  0
    0.9408   -2.6082    0.0994 C   0  0  0  0  0  0  0  0  0  0  0  0
    0.4506   -1.2940    0.0536 C   0  0  0  0  0  0  0  0  0  0  0  0
   -0.8103   -0.9979   -0.4907 C   0  0  0  0  0  0  0  0  0  0  0  0
   -1.2986    0.3186   -0.5345 C   0  0  0  0  0  0  0  0  0  0  0  0
   -2.5596    0.6154   -1.0782 C   0  0  0  0  0  0  0  0  0  0  0  0
   -3.0713    1.9332   -1.1287 C   0  0  0  0  0  0  0  0  0  0  0  0
   -4.3542    2.2593   -1.6645 C   0  0  0  0  0  0  0  0  0  0  0  0
   -5.2494    1.2349   -2.2605 C   0  0  0  0  0  0  0  0  0  0  0  0
   -6.2504    0.5302   -1.4584 C   0  0  0  0  0  0  0  0  0  0  0  0
   -7.0455   -0.3982   -2.1859 C   0  0  0  0  0  0  0  0  0  0  0  0
   -6.8709   -0.6201   -3.5575 C   0  0  0  0  0  0  0  0  0  0  0  0
   -5.9072    0.0473   -4.3080 C   0  0  0  0  0  0  0  0  0  0  0  0
   -5.7757   -0.2259   -5.6827 C   0  0  0  0  0  0  0  0  0  0  0  0
   -4.8195    0.4237   -6.4575 C   0  0  0  0  0  0  0  0  0  0  0  0
   -3.9835    1.3545   -5.8641 C   0  0  0  0  0  0  0  0  0  0  0  0
   -4.1120    1.6296   -4.5000 C   0  0  0  0  0  0  0  0  0  0  0  0
   -5.0777    0.9870   -3.6766 C   0  0  0  0  0  0  0  0  0  0  0  0
   -8.0487   -1.1447   -1.5676 C   0  0  0  0  0  0  0  0  0  0  0  0
   -8.3121   -1.0184   -0.2146 C   0  0  0  0  0  0  0  0  0  0  0  0
   -7.5759   -0.1414    0.5699 C   0  0  0  0  0  0  0  0  0  0  0  0
   -7.8932   -0.0742    1.9397 C   0  0  0  0  0  0  0  0  0  0  0  0
   -7.2046    0.7682    2.8164 C   0  0  0  0  0  0  0  0  0  0  0  0
   -7.5133    0.8341    4.1866 C   0  0  0  0  0  0  0  0  0  0  0  0
   -6.8023    1.6820    5.0365 C   0  0  0  0  0  0  0  0  0  0  0  0
   -5.7770    2.4718    4.5271 C   0  0  0  0  0  0  0  0  0  0  0  0
   -5.4651    2.4128    3.1682 C   0  0  0  0  0  0  0  0  0  0  0  0
   -6.1751    1.5633    2.3011 C   0  0  0  0  0  0  0  0  0  0  0  0
   -5.8750    1.4885    0.9243 C   0  0  0  0  0  0  0  0  0  0  0  0
   -6.5425    0.6461   -0.0089 C   0  0  0  0  0  0  0  0  0  0  0  0
   -4.7815    3.6028   -1.6776 C   0  0  0  0  0  0  0  0  0  0  0  0
   -3.9770    4.6123   -1.1619 C   0  0  0  0  0  0  0  0  0  0  0  0
   -2.7295    4.2972   -0.6300 C   0  0  0  0  0  0  0  0  0  0  0  0
   -2.2655    2.9725   -0.6064 C   0  0  0  0  0  0  0  0  0  0  0  0
   -1.0046    2.6751   -0.0628 C   0  0  0  0  0  0  0  0  0  0  0  0
   -0.5102    1.3620   -0.0215 C   0  0  0  0  0  0  0  0  0  0  0  0
    0.7516    1.0660    0.5215 C   0  0  0  0  0  0  0  0  0  0  0  0
    1.2406   -0.2507    0.5649 C   0  0  0  0  0  0  0  0  0  0  0  0
    2.5016   -0.5490    1.1088 C   0  0  0  0  0  0  0  0  0  0  0  0
    3.0089   -1.8686    1.1664 C   0  0  0  0  0  0  0  0  0  0  0  0
    6.2387   -0.5286    1.5484 C   0  0  0  0  0  0  0  0  0  0  0  0
    7.3961   -1.9980   -5.9103 H   0  0  0  0  0  0  0  0  0  0  0  0
    5.4298   -3.2628   -5.0764 H   0  0  0  0  0  0  0  0  0  0  0  0
    4.7268   -3.0460   -2.7228 H   0  0  0  0  0  0  0  0  0  0  0  0
    5.0483   -2.0801   -0.5443 H   0  0  0  0  0  0  0  0  0  0  0  0
    8.9461    0.4554   -2.1356 H   0  0  0  0  0  0  0  0  0  0  0  0
    8.6512   -0.5203   -4.3868 H   0  0  0  0  0  0  0  0  0  0  0  0
    9.2812    1.4362   -0.0289 H   0  0  0  0  0  0  0  0  0  0  0  0
    8.7109    1.7595    2.2886 H   0  0  0  0  0  0  0  0  0  0  0  0
    7.4478    1.3663    4.1635 H   0  0  0  0  0  0  0  0  0  0  0  0
    6.2555    1.0738    6.2192 H   0  0  0  0  0  0  0  0  0  0  0  0
    4.4677    0.0051    7.5249 H   0  0  0  0  0  0  0  0  0  0  0  0
    2.9649   -1.6464    6.4375 H   0  0  0  0  0  0  0  0  0  0  0  0
    3.2543   -2.2131    4.0890 H   0  0  0  0  0  0  0  0  0  0  0  0
    5.6737   -3.8028    2.1644 H   0  0  0  0  0  0  0  0  0  0  0  0
    4.2396   -5.5843    1.2392 H   0  0  0  0  0  0  0  0  0  0  0  0
    2.0429   -5.0376    0.2784 H   0  0  0  0  0  0  0  0  0  0  0  0
    0.3276   -3.4151   -0.2990 H   0  0  0  0  0  0  0  0  0  0  0  0
   -1.4244   -1.8054   -0.8861 H   0  0  0  0  0  0  0  0  0  0  0  0
   -3.1601   -0.2057   -1.4670 H   0  0  0  0  0  0  0  0  0  0  0  0
   -7.5084   -1.3451   -4.0643 H   0  0  0  0  0  0  0  0  0  0  0  0
   -6.4241   -0.9560   -6.1631 H   0  0  0  0  0  0  0  0  0  0  0  0
   -4.7290    0.2009   -7.5168 H   0  0  0  0  0  0  0  0  0  0  0  0
   -3.2281    1.8687   -6.4522 H   0  0  0  0  0  0  0  0  0  0  0  0
   -3.4280    2.3644   -4.0782 H   0  0  0  0  0  0  0  0  0  0  0  0
   -8.6515   -1.8500   -2.1379 H   0  0  0  0  0  0  0  0  0  0  0  0
   -9.1051   -1.6255    0.2173 H   0  0  0  0  0  0  0  0  0  0  0  0
   -8.6936   -0.6969    2.3368 H   0  0  0  0  0  0  0  0  0  0  0  0
   -8.3105    0.2211    4.6003 H   0  0  0  0  0  0  0  0  0  0  0  0
   -7.0478    1.7233    6.0941 H   0  0  0  0  0  0  0  0  0  0  0  0
   -5.2181    3.1321    5.1846 H   0  0  0  0  0  0  0  0  0  0  0  0
   -4.6573    3.0336    2.7855 H   0  0  0  0  0  0  0  0  0  0  0  0
   -5.0696    2.1305    0.6016 H   0  0  0  0  0  0  0  0  0  0  0  0
   -5.7547    3.8577   -2.0942 H   0  0  0  0  0  0  0  0  0  0  0  0
   -4.3216    5.6430   -1.1751 H   0  0  0  0  0  0  0  0  0  0  0  0
   -2.1148    5.1020   -0.2312 H   0  0  0  0  0  0  0  0  0  0  0  0
   -0.3944    3.4814    0.3403 H   0  0  0  0  0  0  0  0  0  0  0  0
    1.3648    1.8734    0.9183 H   0  0  0  0  0  0  0  0  0  0  0  0
    3.1046    0.2711    1.4965 H   0  0  0  0  0  0  0  0  0  0  0  0
  1  2  4  0
  2  3  4  0
  3  4  4  0
  4  5  4  0
  5  6  4  0
  6  7  4  0
  7  8  4  0
  8  9  4  0
  9 10  4  0
  7 11  4  0
 11 12  4  0
 12 13  4  0
 13 14  4  0
 14 15  4  0
 15 16  4  0
 16 17  4  0
 17 18  4  0
 18 19  4  0
 19 20  4  0
 20 21  4  0
 21 22  1  0
 22 23  4  0
 23 24  4  0
 24 25  4  0
 25 26  4  0
 26 27  4  0
 27 28  4  0
 28 29  4  0
 29 30  4  0
 30 31  4  0
 31 32  4  0
 32 33  4  0
 33 34  1  0
 34 35  4  0
 35 36  4  0
 36 37  4  0
 37 38  4  0
 38 39  4  0
 39 40  4  0
 40 41  4  0
 41 42  4  0
 42 43  4  0
 36 44  4  0
 44 45  4  0
 45 46  4  0
 46 47  4  0
 47 48  4  0
 48 49  4  0
 49 50  4  0
 50 51  4  0
 51 52  4  0
 52 53  4  0
 53 54  4  0
 54 55  4  0
 33 56  4  0
 56 57  4  0
 57 58  4  0
 58 59  4  0
 59 60  4  0
 60 61  4  0
 61 62  4  0
 62 63  4  0
 63 64  4  0
 64 65  4  0
 21 66  4  0
 10  1  4  0
 66 13  4  0
  9  4  4  0
 20 15  4  0
 65 22  4  0
 66  6  4  0
 65 26  4  0
 63 28  4  0
 61 30  4  0
 59 32  4  0
 43 34  4  0
 55 46  4  0
 55 35  4  0
 43 38  4  0
 53 48  4  0
  1 67  1  0
  2 68  1  0
  3 69  1  0
  5 70  1  0
  8 71  1  0
 10 72  1  0
 11 73  1  0
 12 74  1  0
 14 75  1  0
 16 76  1  0
 17 77  1  0
 18 78  1  0
 19 79  1  0
 23 80  1  0
 24 81  1  0
 25 82  1  0
 27 83  1  0
 29 84  1  0
 31 85  1  0
 37 86  1  0
 39 87  1  0
 40 88  1  0
 41 89  1  0
 42 90  1  0
 44 91  1  0
 45 92  1  0
 47 93  1  0
 49 94  1  0
 50 95  1  0
 51 96  1  0
 52 97  1  0
 54 98  1  0
 56 99  1  0
 57100  1  0
 58101  1  0
 60102  1  0
 62103  1  0
 64104  1  0
M  END
