
     RDKit          3D

104118  0  0  0  0  0  0  0  0999 V2000
    3.5093    3.7675   -5.7875 C   0  0  0  0  0  0  0  0  0  0  0  0
    2.7082    4.2034   -4.7371 C   0  0  0  0  0  0  0  0  0  0  0  0
    3.0592    3.8985   -3.4210 C   0  0  0  0  0  0  0  0  0  0  0  0
    4.2171    3.1539   -3.1379 C   0  0  0  0  0  0  0  0  0  0  0  0
    4.5875    2.8383   -1.8168 C   0  0  0  0  0  0  0  0  0  0  0  0
    5.7498    2.0892   -1.4976 C   0  0  0  0  0  0  0  0  0  0  0  0
    6.5427    1.6573   -2.5888 C   0  0  0  0  0  0  0  0  0  0  0  0
    6.1774    1.9698   -3.9103 C   0  0  0  0  0  0  0  0  0  0  0  0
    5.0255    2.7132   -4.2002 C   0  0  0  0  0  0  0  0  0  0  0  0
    4.6615    3.0264   -5.5214 C   0  0  0  0  0  0  0  0  0  0  0  0
    7.7011    0.9124   -2.3558 C   0  0  0  0  0  0  0  0  0  0  0  0
    8.0904    0.5859   -1.0604 C   0  0  0  0  0  0  0  0  0  0  0  0
    7.3337    0.9960    0.0404 C   0  0  0  0  0  0  0  0  0  0  0  0
    7.7531    0.6501    1.3352 C   0  0  0  0  0  0  0  0  0  0  0  0
    7.0336    1.0323    2.4761 C   0  0  0  0  0  0  0  0  0  0  0  0
    7.4834    0.6633    3.7538 C   0  0  0  0  0  0  0  0  0  0  0  0
    6.7788    1.0329    4.8953 C   0  0  0  0  0  0  0  0  0  0  0  0
    5.6131    1.7797    4.7719 C   0  0  0  0  0  0  0  0  0  0  0  0
    5.1330    2.1675    3.5067 C   0  0  0  0  0  0  0  0  0  0  0  0
    3.8873    2.9630    3.4509 C   0  0  0  0  0  0  0  0  0  0  0  0
    3.9868    4.3607    3.5795 C   0  0  0  0  0  0  0  0  0  0  0  0
    2.8529    5.1647    3.5455 C   0  0  0  0  0  0  0  0  0  0  0  0
    1.5985    4.5833    3.3858 C   0  0  0  0  0  0  0  0  0  0  0  0
    1.4588    3.1936    3.2528 C   0  0  0  0  0  0  0  0  0  0  0  0
    0.1839    2.6249    3.0914 C   0  0  0  0  0  0  0  0  0  0  0  0
    0.0078    1.2401    2.9469 C   0  0  0  0  0  0  0  0  0  0  0  0
   -1.2676    0.6729    2.7857 C   0  0  0  0  0  0  0  0  0  0  0  0
   -1.4402   -0.7140    2.6390 C   0  0  0  0  0  0  0  0  0  0  0  0
   -2.7159   -1.2838    2.4847 C   0  0  0  0  0  0  0  0  0  0  0  0
   -2.9113   -2.6777    2.3391 C   0  0  0  0  0  0  0  0  0  0  0  0
   -4.1948   -3.2799    2.1912 C   0  0  0  0  0  0  0  0  0  0  0  0
   -5.4458   -2.4913    2.2002 C   0  0  0  0  0  0  0  0  0  0  0  0
   -6.0398   -1.9838    1.0065 C   0  0  0  0  0  0  0  0  0  0  0  0
   -5.4899   -2.1696   -0.2880 C   0  0  0  0  0  0  0  0  0  0  0  0
   -6.0798   -1.6738   -1.4811 C   0  0  0  0  0  0  0  0  0  0  0  0
   -7.2872   -0.9556   -1.3330 C   0  0  0  0  0  0  0  0  0  0  0  0
   -7.8445   -0.7536   -0.0600 C   0  0  0  0  0  0  0  0  0  0  0  0
   -7.2414   -1.2527    1.1031 C   0  0  0  0  0  0  0  0  0  0  0  0
   -7.8294   -1.0285    2.3579 C   0  0  0  0  0  0  0  0  0  0  0  0
   -7.2457   -1.5217    3.5206 C   0  0  0  0  0  0  0  0  0  0  0  0
   -6.0646   -2.2497    3.4412 C   0  0  0  0  0  0  0  0  0  0  0  0
   -7.9363   -0.4405   -2.4583 C   0  0  0  0  0  0  0  0  0  0  0  0
   -7.4092   -0.6244   -3.7329 C   0  0  0  0  0  0  0  0  0  0  0  0
   -6.2159   -1.3261   -3.9193 C   0  0  0  0  0  0  0  0  0  0  0  0
   -5.7100   -1.4933   -5.2205 C   0  0  0  0  0  0  0  0  0  0  0  0
   -4.5168   -2.1868   -5.4634 C   0  0  0  0  0  0  0  0  0  0  0  0
   -4.0117   -2.3545   -6.7644 C   0  0  0  0  0  0  0  0  0  0  0  0
   -2.8200   -3.0468   -6.9842 C   0  0  0  0  0  0  0  0  0  0  0  0
   -2.1197   -3.5784   -5.9064 C   0  0  0  0  0  0  0  0  0  0  0  0
   -2.6116   -3.4191   -4.6098 C   0  0  0  0  0  0  0  0  0  0  0  0
   -3.8108   -2.7255   -4.3738 C   0  0  0  0  0  0  0  0  0  0  0  0
   -4.3224   -2.5564   -3.0733 C   0  0  0  0  0  0  0  0  0  0  0  0
   -5.5291   -1.8607   -2.8018 C   0  0  0  0  0  0  0  0  0  0  0  0
   -4.2925   -4.6761    2.0454 C   0  0  0  0  0  0  0  0  0  0  0  0
   -3.1556   -5.4765    2.0443 C   0  0  0  0  0  0  0  0  0  0  0  0
   -1.9008   -4.8937    2.1938 C   0  0  0  0  0  0  0  0  0  0  0  0
   -1.7629   -3.5052    2.3421 C   0  0  0  0  0  0  0  0  0  0  0  0
   -0.4875   -2.9353    2.4959 C   0  0  0  0  0  0  0  0  0  0  0  0
   -0.3119   -1.5512    2.6479 C   0  0  0  0  0  0  0  0  0  0  0  0
    0.9636   -0.9840    2.8097 C   0  0  0  0  0  0  0  0  0  0  0  0
    1.1351    0.4019    2.9638 C   0  0  0  0  0  0  0  0  0  0  0  0
    2.4094    0.9698    3.1343 C   0  0  0  0  0  0  0  0  0  0  0  0
    2.6050    2.3635    3.2812 C   0  0  0  0  0  0  0  0  0  0  0  0
    5.8529    1.7895    2.3341 C   0  0  0  0  0  0  0  0  0  0  0  0
    5.4481    2.1289    1.0172 C   0  0  0  0  0  0  0  0  0  0  0  0
    6.1563    1.7518   -0.1545 C   0  0  0  0  0  0  0  0  0  0  0  0
    3.2393    4.0033   -6.8136 H   0  0  0  0  0  0  0  0  0  0  0  0
    1.8100    4.7809   -4.9388 H   0  0  0  0  0  0  0  0  0  0  0  0
    2.4196    4.2469   -2.6129 H   0  0  0  0  0  0  0  0  0  0  0  0
    3.9384    3.1935   -1.0205 H   0  0  0  0  0  0  0  0  0  0  0  0
    6.8034    1.6271   -4.7327 H   0  0  0  0  0  0  0  0  0  0  0  0
    5.2763    2.6934   -6.3547 H   0  0  0  0  0  0  0  0  0  0  0  0
    8.3186    0.5742   -3.1855 H   0  0  0  0  0  0  0  0  0  0  0  0
    8.9990    0.0035   -0.9220 H   0  0  0  0  0  0  0  0  0  0  0  0
    8.6645    0.0661    1.4580 H   0  0  0  0  0  0  0  0  0  0  0  0
    8.3941    0.0790    3.8687 H   0  0  0  0  0  0  0  0  0  0  0  0
    7.1376    0.7396    5.8782 H   0  0  0  0  0  0  0  0  0  0  0  0
    5.0661    2.0625    5.6699 H   0  0  0  0  0  0  0  0  0  0  0  0
    4.9633    4.8257    3.7047 H   0  0  0  0  0  0  0  0  0  0  0  0
    2.9466    6.2430    3.6440 H   0  0  0  0  0  0  0  0  0  0  0  0
    0.7231    5.2294    3.3641 H   0  0  0  0  0  0  0  0  0  0  0  0
   -0.6916    3.2726    3.0765 H   0  0  0  0  0  0  0  0  0  0  0  0
   -2.1427    1.3208    2.7749 H   0  0  0  0  0  0  0  0  0  0  0  0
   -3.5798   -0.6203    2.4776 H   0  0  0  0  0  0  0  0  0  0  0  0
   -4.5601   -2.7277   -0.3587 H   0  0  0  0  0  0  0  0  0  0  0  0
   -8.7746   -0.1933    0.0277 H   0  0  0  0  0  0  0  0  0  0  0  0
   -8.7557   -0.4632    2.4382 H   0  0  0  0  0  0  0  0  0  0  0  0
   -7.7115   -1.3411    4.4857 H   0  0  0  0  0  0  0  0  0  0  0  0
   -5.6151   -2.6343    4.3552 H   0  0  0  0  0  0  0  0  0  0  0  0
   -8.8678    0.1125   -2.3561 H   0  0  0  0  0  0  0  0  0  0  0  0
   -7.9464   -0.2091   -4.5832 H   0  0  0  0  0  0  0  0  0  0  0  0
   -6.2564   -1.0744   -6.0641 H   0  0  0  0  0  0  0  0  0  0  0  0
   -4.5466   -1.9448   -7.6181 H   0  0  0  0  0  0  0  0  0  0  0  0
   -2.4403   -3.1691   -7.9951 H   0  0  0  0  0  0  0  0  0  0  0  0
   -1.1898   -4.1165   -6.0688 H   0  0  0  0  0  0  0  0  0  0  0  0
   -2.0490   -3.8406   -3.7794 H   0  0  0  0  0  0  0  0  0  0  0  0
   -3.7497   -2.9845   -2.2546 H   0  0  0  0  0  0  0  0  0  0  0  0
   -5.2699   -5.1423    1.9306 H   0  0  0  0  0  0  0  0  0  0  0  0
   -3.2477   -6.5533    1.9300 H   0  0  0  0  0  0  0  0  0  0  0  0
   -1.0237   -5.5378    2.1948 H   0  0  0  0  0  0  0  0  0  0  0  0
    0.3884   -3.5823    2.5004 H   0  0  0  0  0  0  0  0  0  0  0  0
    1.8390   -1.6313    2.8156 H   0  0  0  0  0  0  0  0  0  0  0  0
    3.2726    0.3057    3.1487 H   0  0  0  0  0  0  0  0  0  0  0  0
    4.5364    2.7107    0.9107 H   0  0  0  0  0  0  0  0  0  0  0  0
  1  2  4  0
  2  3  4  0
  3  4  4  0
  4  5  4  0
  5  6  4  0
  6  7  4  0
  7  8  4  0
  8  9  4  0
  9 10  4  0
  7 11  4  0
 11 12  4  0
 12 13  4  0
 13 14  4  0
 14 15  4  0
 15 16  4  0
 16 17  4  0
 17 18  4  0
 18 19  4  0
 19 20  1  0
 20 21  4  0
 21 22  4  0
 22 23  4  0
 23 24  4  0
 24 25  4  0
 25 26  4  0
 26 27  4  0
 27 28  4  0
 28 29  4  0
 29 30  4  0
 30 31  4  0
 31 32  1  0
 32 33  4  0
 33 34  4  0
 34 35  4  0
 35 36  4  0
 36 37  4  0
 37 38  4  0
 38 39  4  0
 39 40  4  0
 40 41  4  0
 36 42  4  0
 42 43  4  0
 43 44  4  0
 44 45  4  0
 45 46  4  0
 46 47  4  0
 47 48  4  0
 48 49  4  0
 49 50  4  0
 50 51  4  0
 51 52  4  0
 52 53  4  0
 31 54  4  0
 54 55  4  0
 55 56  4  0
 56 57  4  0
 57 58  4  0
 58 59  4  0
 59 60  4  0
 60 61  4  0
 61 62  4  0
 62 63  4  0
 19 64  4  0
 64 65  4  0
 65 66  4  0
 10  1  4  0
 66 13  4  0
  9  4  4  0
 64 15  4  0
 66  6  4  0
 63 20  4  0
 63 24  4  0
 61 26  4  0
 59 28  4  0
 57 30  4  0
 41 32  4  0
 53 44  4  0
 38 33  4  0
 51 46  4  0
 53 35  4  0
  1 67  1  0
  2 68  1  0
  3 69  1  0
  5 70  1  0
  8 71  1  0
 10 72  1  0
 11 73  1  0
 12 74  1  0
 14 75  1  0
 16 76  1  0
 17 77  1  0
 18 78  1  0
 21 79  1  0
 22 80  1  0
 23 81  1  0
 25 82  1  0
 27 83  1  0
 29 84  1  0
 34 85  1  0
 37 86  1  0
 39 87  1  0
 40 88  1  0
 41 89  1  0
 42 90  1  0
 43 91  1  0
 45 92  1  0
 47 93  1  0
 48 94  1  0
 49 95  1  0
 50 96  1  0
 52 97  1  0
 54 98  1  0
 55 99  1  0
 56100  1  0
 58101  1  0
 60102  1  0
 62103  1  0
 65104  1  0
M  END
