
     RDKit          3D

 96110  0  0  0  0  0  0  0  0999 V2000
   -6.9040   -2.6241   -3.5115 C   0  0  0  0  0  0  0  0  0  0  0  0
   -5.7662   -2.0633   -4.0531 C   0  0  0  0  0  0  0  0  0  0  0  0
   -5.2831   -0.8665   -3.5301 C   0  0  0  0  0  0  0  0  0  0  0  0
   -5.9150   -0.1888   -2.4529 C   0  0  0  0  0  0  0  0  0  0  0  0
   -7.0822   -0.7629   -1.8865 C   0  0  0  0  0  0  0  0  0  0  0  0
   -7.5454   -1.9848   -2.4497 C   0  0  0  0  0  0  0  0  0  0  0  0
   -7.7386   -0.1062   -0.7897 C   0  0  0  0  0  0  0  0  0  0  0  0
   -7.2217    1.1144   -0.2796 C   0  0  0  0  0  0  0  0  0  0  0  0
   -7.8717    1.7709    0.8136 C   0  0  0  0  0  0  0  0  0  0  0  0
   -7.3685    2.9865    1.3328 C   0  0  0  0  0  0  0  0  0  0  0  0
   -8.0145    3.6197    2.4055 C   0  0  0  0  0  0  0  0  0  0  0  0
   -9.1568    3.0635    2.9728 C   0  0  0  0  0  0  0  0  0  0  0  0
   -9.6631    1.8681    2.4722 C   0  0  0  0  0  0  0  0  0  0  0  0
   -9.0319    1.2186    1.4001 C   0  0  0  0  0  0  0  0  0  0  0  0
   -9.5365    0.0243    0.8995 C   0  0  0  0  0  0  0  0  0  0  0  0
   -8.9035   -0.6175   -0.1666 C   0  0  0  0  0  0  0  0  0  0  0  0
   -6.2270    3.5435    0.7664 C   0  0  0  0  0  0  0  0  0  0  0  0
   -5.5905    2.9084   -0.2985 C   0  0  0  0  0  0  0  0  0  0  0  0
   -6.0603    1.6914   -0.8467 C   0  0  0  0  0  0  0  0  0  0  0  0
   -5.4066    1.0386   -1.9326 C   0  0  0  0  0  0  0  0  0  0  0  0
   -4.1839    1.6473   -2.5302 C   0  0  0  0  0  0  0  0  0  0  0  0
   -4.3439    2.5301   -3.6158 C   0  0  0  0  0  0  0  0  0  0  0  0
   -3.2430    3.1289   -4.2175 C   0  0  0  0  0  0  0  0  0  0  0  0
   -1.9629    2.8561   -3.7436 C   0  0  0  0  0  0  0  0  0  0  0  0
   -1.7630    1.9839   -2.6624 C   0  0  0  0  0  0  0  0  0  0  0  0
   -0.4630    1.7236   -2.1958 C   0  0  0  0  0  0  0  0  0  0  0  0
   -0.2264    0.8610   -1.1139 C   0  0  0  0  0  0  0  0  0  0  0  0
    1.0737    0.6048   -0.6456 C   0  0  0  0  0  0  0  0  0  0  0  0
    1.3056   -0.2574    0.4398 C   0  0  0  0  0  0  0  0  0  0  0  0
    2.6047   -0.5129    0.9117 C   0  0  0  0  0  0  0  0  0  0  0  0
    2.8588   -1.3763    2.0038 C   0  0  0  0  0  0  0  0  0  0  0  0
    4.1669   -1.6481    2.5043 C   0  0  0  0  0  0  0  0  0  0  0  0
    5.3886   -1.0315    1.9144 C   0  0  0  0  0  0  0  0  0  0  0  0
    6.0810   -1.7030    0.8649 C   0  0  0  0  0  0  0  0  0  0  0  0
    5.6483   -2.9451    0.3432 C   0  0  0  0  0  0  0  0  0  0  0  0
    6.3254   -3.6008   -0.6836 C   0  0  0  0  0  0  0  0  0  0  0  0
    7.4714   -3.0396   -1.2366 C   0  0  0  0  0  0  0  0  0  0  0  0
    7.9362   -1.7976   -0.7447 C   0  0  0  0  0  0  0  0  0  0  0  0
    9.1005   -1.2406   -1.3184 C   0  0  0  0  0  0  0  0  0  0  0  0
    9.7739   -1.9120   -2.3505 C   0  0  0  0  0  0  0  0  0  0  0  0
    9.3055   -3.1335   -2.8242 C   0  0  0  0  0  0  0  0  0  0  0  0
    8.1590   -3.6942   -2.2697 C   0  0  0  0  0  0  0  0  0  0  0  0
    9.5667   -0.0198   -0.8453 C   0  0  0  0  0  0  0  0  0  0  0  0
    8.8917    0.6440    0.1808 C   0  0  0  0  0  0  0  0  0  0  0  0
    7.7209    0.1289    0.7895 C   0  0  0  0  0  0  0  0  0  0  0  0
    7.2441   -1.1195    0.3085 C   0  0  0  0  0  0  0  0  0  0  0  0
    7.0206    0.8083    1.8446 C   0  0  0  0  0  0  0  0  0  0  0  0
    7.4364    2.0628    2.3711 C   0  0  0  0  0  0  0  0  0  0  0  0
    6.7531    2.7223    3.3939 C   0  0  0  0  0  0  0  0  0  0  0  0
    5.6209    2.1486    3.9336 C   0  0  0  0  0  0  0  0  0  0  0  0
    5.1831    0.9206    3.4451 C   0  0  0  0  0  0  0  0  0  0  0  0
    5.8556    0.2242    2.4048 C   0  0  0  0  0  0  0  0  0  0  0  0
    4.3255   -2.5236    3.5962 C   0  0  0  0  0  0  0  0  0  0  0  0
    3.2242   -3.1256    4.1936 C   0  0  0  0  0  0  0  0  0  0  0  0
    1.9459   -2.8611    3.7103 C   0  0  0  0  0  0  0  0  0  0  0  0
    1.7476   -1.9945    2.6244 C   0  0  0  0  0  0  0  0  0  0  0  0
    0.4487   -1.7384    2.1532 C   0  0  0  0  0  0  0  0  0  0  0  0
    0.2138   -0.8779    1.0695 C   0  0  0  0  0  0  0  0  0  0  0  0
   -1.0858   -0.6227    0.6005 C   0  0  0  0  0  0  0  0  0  0  0  0
   -1.3179    0.2400   -0.4841 C   0  0  0  0  0  0  0  0  0  0  0  0
   -2.6178    0.4970   -0.9530 C   0  0  0  0  0  0  0  0  0  0  0  0
   -2.8739    1.3662   -2.0398 C   0  0  0  0  0  0  0  0  0  0  0  0
   -7.2986   -3.5565   -3.9059 H   0  0  0  0  0  0  0  0  0  0  0  0
   -5.2500   -2.5467   -4.8775 H   0  0  0  0  0  0  0  0  0  0  0  0
   -4.3807   -0.4620   -3.9863 H   0  0  0  0  0  0  0  0  0  0  0  0
   -8.4345   -2.4770   -2.0668 H   0  0  0  0  0  0  0  0  0  0  0  0
   -7.6286    4.5541    2.8072 H   0  0  0  0  0  0  0  0  0  0  0  0
   -9.6511    3.5604    3.8031 H   0  0  0  0  0  0  0  0  0  0  0  0
  -10.5569    1.4452    2.9256 H   0  0  0  0  0  0  0  0  0  0  0  0
  -10.4282   -0.4263    1.3292 H   0  0  0  0  0  0  0  0  0  0  0  0
   -9.3578   -1.5459   -0.4995 H   0  0  0  0  0  0  0  0  0  0  0  0
   -5.8152    4.4768    1.1433 H   0  0  0  0  0  0  0  0  0  0  0  0
   -4.7005    3.3915   -0.6986 H   0  0  0  0  0  0  0  0  0  0  0  0
   -5.3414    2.7495   -3.9936 H   0  0  0  0  0  0  0  0  0  0  0  0
   -3.3829    3.8079   -5.0543 H   0  0  0  0  0  0  0  0  0  0  0  0
   -1.1144    3.3355   -4.2281 H   0  0  0  0  0  0  0  0  0  0  0  0
    0.3844    2.2035   -2.6831 H   0  0  0  0  0  0  0  0  0  0  0  0
    1.9214    1.0841   -1.1329 H   0  0  0  0  0  0  0  0  0  0  0  0
    3.4404   -0.0231    0.4133 H   0  0  0  0  0  0  0  0  0  0  0  0
    4.7563   -3.4322    0.7340 H   0  0  0  0  0  0  0  0  0  0  0  0
    5.9414   -4.5532   -1.0416 H   0  0  0  0  0  0  0  0  0  0  0  0
   10.6709   -1.4854   -2.7938 H   0  0  0  0  0  0  0  0  0  0  0  0
    9.8321   -3.6470   -3.6240 H   0  0  0  0  0  0  0  0  0  0  0  0
    7.8037   -4.6492   -2.6503 H   0  0  0  0  0  0  0  0  0  0  0  0
   10.4604    0.4352   -1.2662 H   0  0  0  0  0  0  0  0  0  0  0  0
    9.3180    1.5922    0.4946 H   0  0  0  0  0  0  0  0  0  0  0  0
    8.3190    2.5665    1.9884 H   0  0  0  0  0  0  0  0  0  0  0  0
    7.1110    3.6803    3.7600 H   0  0  0  0  0  0  0  0  0  0  0  0
    5.0739    2.6466    4.7290 H   0  0  0  0  0  0  0  0  0  0  0  0
    4.2833    0.5067    3.8979 H   0  0  0  0  0  0  0  0  0  0  0  0
    5.3217   -2.7342    3.9821 H   0  0  0  0  0  0  0  0  0  0  0  0
    3.3612   -3.7989    5.0356 H   0  0  0  0  0  0  0  0  0  0  0  0
    1.0967   -3.3412    4.1926 H   0  0  0  0  0  0  0  0  0  0  0  0
   -0.3992   -2.2177    2.6400 H   0  0  0  0  0  0  0  0  0  0  0  0
   -1.9329   -1.1025    1.0883 H   0  0  0  0  0  0  0  0  0  0  0  0
   -3.4525    0.0063   -0.4540 H   0  0  0  0  0  0  0  0  0  0  0  0
  1  2  4  0
  2  3  4  0
  3  4  4  0
  4  5  4  0
  5  6  4  0
  5  7  4  0
  7  8  4  0
  8  9  4  0
  9 10  4  0
 10 11  4  0
 11 12  4  0
 12 13  4  0
 13 14  4  0
 14 15  4  0
 15 16  4  0
 10 17  4  0
 17 18  4  0
 18 19  4  0
 19 20  4  0
 20 21  1  0
 21 22  4  0
 22 23  4  0
 23 24  4  0
 24 25  4  0
 25 26  4  0
 26 27  4  0
 27 28  4  0
 28 29  4  0
 29 30  4  0
 30 31  4  0
 31 32  4  0
 32 33  1  0
 33 34  4  0
 34 35  4  0
 35 36  4  0
 36 37  4  0
 37 38  4  0
 38 39  4  0
 39 40  4  0
 40 41  4  0
 41 42  4  0
 39 43  4  0
 43 44  4  0
 44 45  4  0
 45 46  4  0
 45 47  4  0
 47 48  4  0
 48 49  4  0
 49 50  4  0
 50 51  4  0
 51 52  4  0
 32 53  4  0
 53 54  4  0
 54 55  4  0
 55 56  4  0
 56 57  4  0
 57 58  4  0
 58 59  4  0
 59 60  4  0
 60 61  4  0
 61 62  4  0
  6  1  4  0
 16  7  4  0
 62 21  4  0
 20  4  4  0
 62 25  4  0
 19  8  4  0
 60 27  4  0
 14  9  4  0
 58 29  4  0
 56 31  4  0
 52 33  4  0
 46 34  4  0
 52 47  4  0
 42 37  4  0
 46 38  4  0
  1 63  1  0
  2 64  1  0
  3 65  1  0
  6 66  1  0
 11 67  1  0
 12 68  1  0
 13 69  1  0
 15 70  1  0
 16 71  1  0
 17 72  1  0
 18 73  1  0
 22 74  1  0
 23 75  1  0
 24 76  1  0
 26 77  1  0
 28 78  1  0
 30 79  1  0
 35 80  1  0
 36 81  1  0
 40 82  1  0
 41 83  1  0
 42 84  1  0
 43 85  1  0
 44 86  1  0
 48 87  1  0
 49 88  1  0
 50 89  1  0
 51 90  1  0
 53 91  1  0
 54 92  1  0
 55 93  1  0
 57 94  1  0
 59 95  1  0
 61 96  1  0
M  END
