
     RDKit          3D

 96110  0  0  0  0  0  0  0  0999 V2000
   -6.1045   -0.3292   -5.0043 C   0  0  0  0  0  0  0  0  0  0  0  0
   -7.2249   -1.1037   -4.7533 C   0  0  0  0  0  0  0  0  0  0  0  0
   -7.8000   -1.1022   -3.4790 C   0  0  0  0  0  0  0  0  0  0  0  0
   -7.2776   -0.3278   -2.4089 C   0  0  0  0  0  0  0  0  0  0  0  0
   -6.1356    0.4517   -2.6954 C   0  0  0  0  0  0  0  0  0  0  0  0
   -5.5643    0.4431   -3.9805 C   0  0  0  0  0  0  0  0  0  0  0  0
   -5.5624    1.2427   -1.6948 C   0  0  0  0  0  0  0  0  0  0  0  0
   -6.0745    1.3013   -0.3848 C   0  0  0  0  0  0  0  0  0  0  0  0
   -7.2198    0.5227   -0.0827 C   0  0  0  0  0  0  0  0  0  0  0  0
   -7.8289   -0.2908   -1.0820 C   0  0  0  0  0  0  0  0  0  0  0  0
   -8.9708   -1.0333   -0.7022 C   0  0  0  0  0  0  0  0  0  0  0  0
   -9.4981   -0.9895    0.5897 C   0  0  0  0  0  0  0  0  0  0  0  0
   -8.9045   -0.1971    1.5676 C   0  0  0  0  0  0  0  0  0  0  0  0
   -9.4310   -0.1488    2.8671 C   0  0  0  0  0  0  0  0  0  0  0  0
   -8.8360    0.6459    3.8422 C   0  0  0  0  0  0  0  0  0  0  0  0
   -7.7092    1.3996    3.5266 C   0  0  0  0  0  0  0  0  0  0  0  0
   -7.1657    1.3671    2.2334 C   0  0  0  0  0  0  0  0  0  0  0  0
   -7.7608    0.5637    1.2354 C   0  0  0  0  0  0  0  0  0  0  0  0
   -6.0388    2.1260    1.9162 C   0  0  0  0  0  0  0  0  0  0  0  0
   -5.4827    2.1094    0.6264 C   0  0  0  0  0  0  0  0  0  0  0  0
   -4.3006    2.9647    0.3768 C   0  0  0  0  0  0  0  0  0  0  0  0
   -4.5234    4.3099    0.0271 C   0  0  0  0  0  0  0  0  0  0  0  0
   -3.4602    5.1711   -0.2178 C   0  0  0  0  0  0  0  0  0  0  0  0
   -2.1545    4.7016   -0.1158 C   0  0  0  0  0  0  0  0  0  0  0  0
   -1.8917    3.3680    0.2311 C   0  0  0  0  0  0  0  0  0  0  0  0
   -0.5652    2.9149    0.3263 C   0  0  0  0  0  0  0  0  0  0  0  0
   -0.2621    1.5880    0.6668 C   0  0  0  0  0  0  0  0  0  0  0  0
    1.0661    1.1377    0.7579 C   0  0  0  0  0  0  0  0  0  0  0  0
    1.3671   -0.1930    1.0932 C   0  0  0  0  0  0  0  0  0  0  0  0
    2.6949   -0.6466    1.1803 C   0  0  0  0  0  0  0  0  0  0  0  0
    3.0194   -1.9837    1.5115 C   0  0  0  0  0  0  0  0  0  0  0  0
    4.3567   -2.4705    1.5999 C   0  0  0  0  0  0  0  0  0  0  0  0
    5.5328   -1.6069    1.3529 C   0  0  0  0  0  0  0  0  0  0  0  0
    6.1215   -0.9742    2.4601 C   0  0  0  0  0  0  0  0  0  0  0  0
    7.2338   -0.1447    2.3176 C   0  0  0  0  0  0  0  0  0  0  0  0
    7.7810    0.0624    1.0316 C   0  0  0  0  0  0  0  0  0  0  0  0
    8.9078    0.9048    0.9000 C   0  0  0  0  0  0  0  0  0  0  0  0
    9.4655    1.5187    2.0316 C   0  0  0  0  0  0  0  0  0  0  0  0
    8.9179    1.3073    3.2934 C   0  0  0  0  0  0  0  0  0  0  0  0
    7.8076    0.4800    3.4352 C   0  0  0  0  0  0  0  0  0  0  0  0
    9.4526    1.1140   -0.3635 C   0  0  0  0  0  0  0  0  0  0  0  0
    8.8941    0.4999   -1.4860 C   0  0  0  0  0  0  0  0  0  0  0  0
    7.7680   -0.3511   -1.4049 C   0  0  0  0  0  0  0  0  0  0  0  0
    7.2081   -0.5665   -0.1122 C   0  0  0  0  0  0  0  0  0  0  0  0
    6.0783   -1.4058    0.0539 C   0  0  0  0  0  0  0  0  0  0  0  0
    5.5324   -2.0140   -1.0924 C   0  0  0  0  0  0  0  0  0  0  0  0
    6.0586   -1.8211   -2.3736 C   0  0  0  0  0  0  0  0  0  0  0  0
    5.4559   -2.4617   -3.4709 C   0  0  0  0  0  0  0  0  0  0  0  0
    5.9489   -2.2972   -4.7617 C   0  0  0  0  0  0  0  0  0  0  0  0
    7.0535   -1.4879   -4.9698 C   0  0  0  0  0  0  0  0  0  0  0  0
    7.6593   -0.8461   -3.8852 C   0  0  0  0  0  0  0  0  0  0  0  0
    7.1847   -0.9886   -2.5539 C   0  0  0  0  0  0  0  0  0  0  0  0
    4.5839   -3.8177    1.9373 C   0  0  0  0  0  0  0  0  0  0  0  0
    3.5226   -4.6816    2.1817 C   0  0  0  0  0  0  0  0  0  0  0  0
    2.2154   -4.2120    2.0939 C   0  0  0  0  0  0  0  0  0  0  0  0
    1.9491   -2.8751    1.7620 C   0  0  0  0  0  0  0  0  0  0  0  0
    0.6220   -2.4210    1.6763 C   0  0  0  0  0  0  0  0  0  0  0  0
    0.3170   -1.0919    1.3445 C   0  0  0  0  0  0  0  0  0  0  0  0
   -1.0113   -0.6405    1.2556 C   0  0  0  0  0  0  0  0  0  0  0  0
   -1.3129    0.6903    0.9197 C   0  0  0  0  0  0  0  0  0  0  0  0
   -2.6409    1.1445    0.8279 C   0  0  0  0  0  0  0  0  0  0  0  0
   -2.9641    2.4790    0.4839 C   0  0  0  0  0  0  0  0  0  0  0  0
   -5.6497   -0.3241   -5.9907 H   0  0  0  0  0  0  0  0  0  0  0  0
   -7.6570   -1.7121   -5.5431 H   0  0  0  0  0  0  0  0  0  0  0  0
   -8.6762   -1.7285   -3.3394 H   0  0  0  0  0  0  0  0  0  0  0  0
   -4.6830    1.0452   -4.1943 H   0  0  0  0  0  0  0  0  0  0  0  0
   -4.6826    1.8328   -1.9500 H   0  0  0  0  0  0  0  0  0  0  0  0
   -9.4860   -1.6719   -1.4140 H   0  0  0  0  0  0  0  0  0  0  0  0
  -10.3801   -1.5839    0.8167 H   0  0  0  0  0  0  0  0  0  0  0  0
  -10.3120   -0.7309    3.1285 H   0  0  0  0  0  0  0  0  0  0  0  0
   -9.2498    0.6790    4.8462 H   0  0  0  0  0  0  0  0  0  0  0  0
   -7.2565    2.0165    4.2999 H   0  0  0  0  0  0  0  0  0  0  0  0
   -5.5759    2.7497    2.6805 H   0  0  0  0  0  0  0  0  0  0  0  0
   -5.5414    4.6872   -0.0581 H   0  0  0  0  0  0  0  0  0  0  0  0
   -3.6490    6.2063   -0.4882 H   0  0  0  0  0  0  0  0  0  0  0  0
   -1.3355    5.3910   -0.3112 H   0  0  0  0  0  0  0  0  0  0  0  0
    0.2505    3.6088    0.1287 H   0  0  0  0  0  0  0  0  0  0  0  0
    1.8802    1.8335    0.5614 H   0  0  0  0  0  0  0  0  0  0  0  0
    3.4966    0.0631    0.9798 H   0  0  0  0  0  0  0  0  0  0  0  0
    5.6927   -1.1374    3.4484 H   0  0  0  0  0  0  0  0  0  0  0  0
   10.3339    2.1670    1.9371 H   0  0  0  0  0  0  0  0  0  0  0  0
    9.3552    1.7859    4.1653 H   0  0  0  0  0  0  0  0  0  0  0  0
    7.3917    0.3249    4.4284 H   0  0  0  0  0  0  0  0  0  0  0  0
   10.3199    1.7571   -0.4944 H   0  0  0  0  0  0  0  0  0  0  0  0
    9.3707    0.7080   -2.4396 H   0  0  0  0  0  0  0  0  0  0  0  0
    4.6629   -2.6625   -0.9887 H   0  0  0  0  0  0  0  0  0  0  0  0
    4.5866   -3.1006   -3.3249 H   0  0  0  0  0  0  0  0  0  0  0  0
    5.4704   -2.7995   -5.5975 H   0  0  0  0  0  0  0  0  0  0  0  0
    7.4494   -1.3506   -5.9726 H   0  0  0  0  0  0  0  0  0  0  0  0
    8.5216   -0.2243   -4.1070 H   0  0  0  0  0  0  0  0  0  0  0  0
    5.6026   -4.1960    2.0054 H   0  0  0  0  0  0  0  0  0  0  0  0
    3.7139   -5.7197    2.4394 H   0  0  0  0  0  0  0  0  0  0  0  0
    1.3983   -4.9038    2.2884 H   0  0  0  0  0  0  0  0  0  0  0  0
   -0.1924   -3.1172    1.8697 H   0  0  0  0  0  0  0  0  0  0  0  0
   -1.8261   -1.3371    1.4469 H   0  0  0  0  0  0  0  0  0  0  0  0
   -3.4437    0.4356    1.0263 H   0  0  0  0  0  0  0  0  0  0  0  0
  1  2  4  0
  2  3  4  0
  3  4  4  0
  4  5  4  0
  5  6  4  0
  5  7  4  0
  7  8  4  0
  8  9  4  0
  9 10  4  0
 10 11  4  0
 11 12  4  0
 12 13  4  0
 13 14  4  0
 14 15  4  0
 15 16  4  0
 16 17  4  0
 17 18  4  0
 17 19  4  0
 19 20  4  0
 20 21  1  0
 21 22  4  0
 22 23  4  0
 23 24  4  0
 24 25  4  0
 25 26  4  0
 26 27  4  0
 27 28  4  0
 28 29  4  0
 29 30  4  0
 30 31  4  0
 31 32  4  0
 32 33  1  0
 33 34  4  0
 34 35  4  0
 35 36  4  0
 36 37  4  0
 37 38  4  0
 38 39  4  0
 39 40  4  0
 37 41  4  0
 41 42  4  0
 42 43  4  0
 43 44  4  0
 44 45  4  0
 45 46  4  0
 46 47  4  0
 47 48  4  0
 48 49  4  0
 49 50  4  0
 50 51  4  0
 51 52  4  0
 32 53  4  0
 53 54  4  0
 54 55  4  0
 55 56  4  0
 56 57  4  0
 57 58  4  0
 58 59  4  0
 59 60  4  0
 60 61  4  0
 61 62  4  0
  6  1  4  0
 20  8  4  0
 62 21  4  0
 10  4  4  0
 18 13  4  0
 62 25  4  0
 18  9  4  0
 60 27  4  0
 58 29  4  0
 56 31  4  0
 45 33  4  0
 52 47  4  0
 40 35  4  0
 52 43  4  0
 44 36  4  0
  1 63  1  0
  2 64  1  0
  3 65  1  0
  6 66  1  0
  7 67  1  0
 11 68  1  0
 12 69  1  0
 14 70  1  0
 15 71  1  0
 16 72  1  0
 19 73  1  0
 22 74  1  0
 23 75  1  0
 24 76  1  0
 26 77  1  0
 28 78  1  0
 30 79  1  0
 34 80  1  0
 38 81  1  0
 39 82  1  0
 40 83  1  0
 41 84  1  0
 42 85  1  0
 46 86  1  0
 48 87  1  0
 49 88  1  0
 50 89  1  0
 51 90  1  0
 53 91  1  0
 54 92  1  0
 55 93  1  0
 57 94  1  0
 59 95  1  0
 61 96  1  0
M  END
