
     RDKit          3D

 96110  0  0  0  0  0  0  0  0999 V2000
   -8.4617    3.9587   -0.2549 C   0  0  0  0  0  0  0  0  0  0  0  0
   -9.0330    3.1158   -1.2039 C   0  0  0  0  0  0  0  0  0  0  0  0
   -8.6862    1.7574   -1.2539 C   0  0  0  0  0  0  0  0  0  0  0  0
   -7.7441    1.2307   -0.3350 C   0  0  0  0  0  0  0  0  0  0  0  0
   -7.1786    2.0947    0.6221 C   0  0  0  0  0  0  0  0  0  0  0  0
   -7.5398    3.4503    0.6552 C   0  0  0  0  0  0  0  0  0  0  0  0
   -6.2657    1.5755    1.5296 C   0  0  0  0  0  0  0  0  0  0  0  0
   -5.9094    0.2224    1.4857 C   0  0  0  0  0  0  0  0  0  0  0  0
   -6.4180   -0.6992    0.5367 C   0  0  0  0  0  0  0  0  0  0  0  0
   -7.3707   -0.1481   -0.3721 C   0  0  0  0  0  0  0  0  0  0  0  0
   -7.9777   -0.9658   -1.3440 C   0  0  0  0  0  0  0  0  0  0  0  0
   -7.6493   -2.3154   -1.4096 C   0  0  0  0  0  0  0  0  0  0  0  0
   -6.7128   -2.8921   -0.5508 C   0  0  0  0  0  0  0  0  0  0  0  0
   -6.4652   -4.2628   -0.7278 C   0  0  0  0  0  0  0  0  0  0  0  0
   -5.5443   -4.9389    0.0514 C   0  0  0  0  0  0  0  0  0  0  0  0
   -4.8483   -4.2379    1.0162 C   0  0  0  0  0  0  0  0  0  0  0  0
   -5.0653   -2.8543    1.2283 C   0  0  0  0  0  0  0  0  0  0  0  0
   -4.1972   -2.2593    2.2676 C   0  0  0  0  0  0  0  0  0  0  0  0
   -4.5778   -2.4059    3.6161 C   0  0  0  0  0  0  0  0  0  0  0  0
   -3.7850   -1.9016    4.6407 C   0  0  0  0  0  0  0  0  0  0  0  0
   -2.5930   -1.2505    4.3354 C   0  0  0  0  0  0  0  0  0  0  0  0
   -2.1749   -1.0920    3.0050 C   0  0  0  0  0  0  0  0  0  0  0  0
   -0.9691   -0.4294    2.7171 C   0  0  0  0  0  0  0  0  0  0  0  0
   -0.5258   -0.2439    1.3980 C   0  0  0  0  0  0  0  0  0  0  0  0
    0.6765    0.4252    1.1096 C   0  0  0  0  0  0  0  0  0  0  0  0
    1.1110    0.6160   -0.2135 C   0  0  0  0  0  0  0  0  0  0  0  0
    2.3111    1.2877   -0.5061 C   0  0  0  0  0  0  0  0  0  0  0  0
    2.7638    1.4893   -1.8320 C   0  0  0  0  0  0  0  0  0  0  0  0
    3.9801    2.1626   -2.1568 C   0  0  0  0  0  0  0  0  0  0  0  0
    4.8488    2.7699   -1.1258 C   0  0  0  0  0  0  0  0  0  0  0  0
    5.9422    2.0887   -0.4532 C   0  0  0  0  0  0  0  0  0  0  0  0
    6.6429    2.8836    0.5012 C   0  0  0  0  0  0  0  0  0  0  0  0
    6.2980    4.2193    0.7631 C   0  0  0  0  0  0  0  0  0  0  0  0
    5.2514    4.8394    0.1056 C   0  0  0  0  0  0  0  0  0  0  0  0
    4.5351    4.1195   -0.8299 C   0  0  0  0  0  0  0  0  0  0  0  0
    7.7161    2.3680    1.2291 C   0  0  0  0  0  0  0  0  0  0  0  0
    8.1569    1.0593    1.0673 C   0  0  0  0  0  0  0  0  0  0  0  0
    9.2387    0.5929    1.8280 C   0  0  0  0  0  0  0  0  0  0  0  0
    9.7025   -0.7119    1.6888 C   0  0  0  0  0  0  0  0  0  0  0  0
    9.0932   -1.5807    0.7839 C   0  0  0  0  0  0  0  0  0  0  0  0
    7.9987   -1.1204    0.0091 C   0  0  0  0  0  0  0  0  0  0  0  0
    7.3942   -2.0096   -0.8997 C   0  0  0  0  0  0  0  0  0  0  0  0
    7.8705   -3.3234   -1.0301 C   0  0  0  0  0  0  0  0  0  0  0  0
    8.9456   -3.7653   -0.2647 C   0  0  0  0  0  0  0  0  0  0  0  0
    9.5540   -2.8977    0.6379 C   0  0  0  0  0  0  0  0  0  0  0  0
    6.3229   -1.5583   -1.6583 C   0  0  0  0  0  0  0  0  0  0  0  0
    5.8551   -0.2457   -1.5208 C   0  0  0  0  0  0  0  0  0  0  0  0
    6.4113    0.7030   -0.6267 C   0  0  0  0  0  0  0  0  0  0  0  0
    7.5120    0.2169    0.1419 C   0  0  0  0  0  0  0  0  0  0  0  0
    4.3477    2.3190   -3.5080 C   0  0  0  0  0  0  0  0  0  0  0  0
    3.5510    1.8126   -4.5286 C   0  0  0  0  0  0  0  0  0  0  0  0
    2.3675    1.1502   -4.2161 C   0  0  0  0  0  0  0  0  0  0  0  0
    1.9621    0.9832   -2.8830 C   0  0  0  0  0  0  0  0  0  0  0  0
    0.7619    0.3141   -2.5906 C   0  0  0  0  0  0  0  0  0  0  0  0
    0.3267    0.1243   -1.2703 C   0  0  0  0  0  0  0  0  0  0  0  0
   -0.8737   -0.5464   -0.9823 C   0  0  0  0  0  0  0  0  0  0  0  0
   -1.3073   -0.7371    0.3401 C   0  0  0  0  0  0  0  0  0  0  0  0
   -2.5081   -1.4077    0.6280 C   0  0  0  0  0  0  0  0  0  0  0  0
   -2.9719   -1.5986    1.9509 C   0  0  0  0  0  0  0  0  0  0  0  0
   -6.0437   -2.1201    0.4438 C   0  0  0  0  0  0  0  0  0  0  0  0
   -8.9120   -0.4344   -2.2444 C   0  0  0  0  0  0  0  0  0  0  0  0
   -9.2613    0.9121   -2.2026 C   0  0  0  0  0  0  0  0  0  0  0  0
   -8.7350    5.0096   -0.2237 H   0  0  0  0  0  0  0  0  0  0  0  0
   -9.7531    3.5274   -1.9071 H   0  0  0  0  0  0  0  0  0  0  0  0
   -7.1028    4.1196    1.3929 H   0  0  0  0  0  0  0  0  0  0  0  0
   -5.8135    2.2090    2.2895 H   0  0  0  0  0  0  0  0  0  0  0  0
   -5.2084   -0.0809    2.2502 H   0  0  0  0  0  0  0  0  0  0  0  0
   -8.1367   -2.9347   -2.1626 H   0  0  0  0  0  0  0  0  0  0  0  0
   -6.9961   -4.8274   -1.4931 H   0  0  0  0  0  0  0  0  0  0  0  0
   -5.3628   -5.9986   -0.1003 H   0  0  0  0  0  0  0  0  0  0  0  0
   -4.1074   -4.7674    1.6147 H   0  0  0  0  0  0  0  0  0  0  0  0
   -5.5071   -2.9157    3.8651 H   0  0  0  0  0  0  0  0  0  0  0  0
   -4.0952   -2.0168    5.6757 H   0  0  0  0  0  0  0  0  0  0  0  0
   -1.9864   -0.8639    5.1521 H   0  0  0  0  0  0  0  0  0  0  0  0
   -0.3634   -0.0455    3.5364 H   0  0  0  0  0  0  0  0  0  0  0  0
    1.2841    0.8066    1.9284 H   0  0  0  0  0  0  0  0  0  0  0  0
    2.9127    1.6560    0.3239 H   0  0  0  0  0  0  0  0  0  0  0  0
    6.8533    4.8014    1.4974 H   0  0  0  0  0  0  0  0  0  0  0  0
    4.9972    5.8729    0.3204 H   0  0  0  0  0  0  0  0  0  0  0  0
    3.7094    4.6089   -1.3461 H   0  0  0  0  0  0  0  0  0  0  0  0
    8.2289    3.0054    1.9493 H   0  0  0  0  0  0  0  0  0  0  0  0
    9.7351    1.2465    2.5426 H   0  0  0  0  0  0  0  0  0  0  0  0
   10.5434   -1.0403    2.2948 H   0  0  0  0  0  0  0  0  0  0  0  0
    7.4042   -4.0120   -1.7312 H   0  0  0  0  0  0  0  0  0  0  0  0
    9.3084   -4.7839   -0.3712 H   0  0  0  0  0  0  0  0  0  0  0  0
   10.3929   -3.2578    1.2292 H   0  0  0  0  0  0  0  0  0  0  0  0
    5.8285   -2.2157   -2.3703 H   0  0  0  0  0  0  0  0  0  0  0  0
    5.0182   -0.0004   -2.1587 H   0  0  0  0  0  0  0  0  0  0  0  0
    5.2690    2.8409   -3.7622 H   0  0  0  0  0  0  0  0  0  0  0  0
    3.8498    1.9368   -5.5660 H   0  0  0  0  0  0  0  0  0  0  0  0
    1.7565    0.7631   -5.0292 H   0  0  0  0  0  0  0  0  0  0  0  0
    0.1517   -0.0683   -3.4073 H   0  0  0  0  0  0  0  0  0  0  0  0
   -1.4842   -0.9239   -1.8009 H   0  0  0  0  0  0  0  0  0  0  0  0
   -3.1027   -1.7812   -0.2047 H   0  0  0  0  0  0  0  0  0  0  0  0
   -9.3794   -1.0689   -2.9946 H   0  0  0  0  0  0  0  0  0  0  0  0
   -9.9876    1.2913   -2.9174 H   0  0  0  0  0  0  0  0  0  0  0  0
  1  2  4  0
  2  3  4  0
  3  4  4  0
  4  5  4  0
  5  6  4  0
  5  7  4  0
  7  8  4  0
  8  9  4  0
  9 10  4  0
 10 11  4  0
 11 12  4  0
 12 13  4  0
 13 14  4  0
 14 15  4  0
 15 16  4  0
 16 17  4  0
 17 18  1  0
 18 19  4  0
 19 20  4  0
 20 21  4  0
 21 22  4  0
 22 23  4  0
 23 24  4  0
 24 25  4  0
 25 26  4  0
 26 27  4  0
 27 28  4  0
 28 29  4  0
 29 30  1  0
 30 31  4  0
 31 32  4  0
 32 33  4  0
 33 34  4  0
 34 35  4  0
 32 36  4  0
 36 37  4  0
 37 38  4  0
 38 39  4  0
 39 40  4  0
 40 41  4  0
 41 42  4  0
 42 43  4  0
 43 44  4  0
 44 45  4  0
 42 46  4  0
 46 47  4  0
 47 48  4  0
 48 49  4  0
 29 50  4  0
 50 51  4  0
 51 52  4  0
 52 53  4  0
 53 54  4  0
 54 55  4  0
 55 56  4  0
 56 57  4  0
 57 58  4  0
 58 59  4  0
 17 60  4  0
 11 61  4  0
 61 62  4  0
  6  1  4  0
 60  9  4  0
 62  3  4  0
 10  4  4  0
 60 13  4  0
 59 18  4  0
 59 22  4  0
 57 24  4  0
 55 26  4  0
 53 28  4  0
 35 30  4  0
 49 37  4  0
 48 31  4  0
 45 40  4  0
 49 41  4  0
  1 63  1  0
  2 64  1  0
  6 65  1  0
  7 66  1  0
  8 67  1  0
 12 68  1  0
 14 69  1  0
 15 70  1  0
 16 71  1  0
 19 72  1  0
 20 73  1  0
 21 74  1  0
 23 75  1  0
 25 76  1  0
 27 77  1  0
 33 78  1  0
 34 79  1  0
 35 80  1  0
 36 81  1  0
 38 82  1  0
 39 83  1  0
 43 84  1  0
 44 85  1  0
 45 86  1  0
 46 87  1  0
 47 88  1  0
 50 89  1  0
 51 90  1  0
 52 91  1  0
 54 92  1  0
 56 93  1  0
 58 94  1  0
 61 95  1  0
 62 96  1  0
M  END
