
     RDKit          3D

 68 76  0  0  0  0  0  0  0  0999 V2000
   -7.5511    1.7518   -2.1008 C   0  0  0  0  0  0  0  0  0  0  0  0
   -7.8727    1.6909   -0.7457 C   0  0  0  0  0  0  0  0  0  0  0  0
   -7.2641    0.7497    0.1016 C   0  0  0  0  0  0  0  0  0  0  0  0
   -7.6009    0.7067    1.4627 C   0  0  0  0  0  0  0  0  0  0  0  0
   -7.0102   -0.2195    2.3173 C   0  0  0  0  0  0  0  0  0  0  0  0
   -6.0734   -1.1188    1.8195 C   0  0  0  0  0  0  0  0  0  0  0  0
   -5.7075   -1.1068    0.4603 C   0  0  0  0  0  0  0  0  0  0  0  0
   -4.7121   -2.0985   -0.0009 C   0  0  0  0  0  0  0  0  0  0  0  0
   -5.1828   -3.3371   -0.4752 C   0  0  0  0  0  0  0  0  0  0  0  0
   -4.3001   -4.3180   -0.9130 C   0  0  0  0  0  0  0  0  0  0  0  0
   -2.9298   -4.0776   -0.8797 C   0  0  0  0  0  0  0  0  0  0  0  0
   -2.4218   -2.8563   -0.4116 C   0  0  0  0  0  0  0  0  0  0  0  0
   -1.0343   -2.6345   -0.3824 C   0  0  0  0  0  0  0  0  0  0  0  0
   -0.4901   -1.4262    0.0798 C   0  0  0  0  0  0  0  0  0  0  0  0
    0.8980   -1.2082    0.1124 C   0  0  0  0  0  0  0  0  0  0  0  0
    1.4394    0.0029    0.5760 C   0  0  0  0  0  0  0  0  0  0  0  0
    2.8274    0.2224    0.6120 C   0  0  0  0  0  0  0  0  0  0  0  0
    3.3921    1.4351    1.0742 C   0  0  0  0  0  0  0  0  0  0  0  0
    4.7956    1.6817    1.1200 C   0  0  0  0  0  0  0  0  0  0  0  0
    5.7904    0.6753    0.6914 C   0  0  0  0  0  0  0  0  0  0  0  0
    6.2345    0.5671   -0.6586 C   0  0  0  0  0  0  0  0  0  0  0  0
    5.7686    1.4000   -1.7032 C   0  0  0  0  0  0  0  0  0  0  0  0
    6.2276    1.2598   -3.0146 C   0  0  0  0  0  0  0  0  0  0  0  0
    7.1660    0.2828   -3.3184 C   0  0  0  0  0  0  0  0  0  0  0  0
    7.6445   -0.5541   -2.3115 C   0  0  0  0  0  0  0  0  0  0  0  0
    7.1921   -0.4262   -0.9875 C   0  0  0  0  0  0  0  0  0  0  0  0
    7.6849   -1.2800    0.0105 C   0  0  0  0  0  0  0  0  0  0  0  0
    7.2482   -1.1689    1.3274 C   0  0  0  0  0  0  0  0  0  0  0  0
    6.3100   -0.1992    1.6642 C   0  0  0  0  0  0  0  0  0  0  0  0
    5.2669    2.9197    1.5950 C   0  0  0  0  0  0  0  0  0  0  0  0
    4.3835    3.9066    2.0176 C   0  0  0  0  0  0  0  0  0  0  0  0
    3.0127    3.6706    1.9743 C   0  0  0  0  0  0  0  0  0  0  0  0
    2.5046    2.4483    1.5089 C   0  0  0  0  0  0  0  0  0  0  0  0
    1.1171    2.2284    1.4736 C   0  0  0  0  0  0  0  0  0  0  0  0
    0.5736    1.0189    1.0137 C   0  0  0  0  0  0  0  0  0  0  0  0
   -0.8143    0.8008    0.9809 C   0  0  0  0  0  0  0  0  0  0  0  0
   -1.3559   -0.4112    0.5202 C   0  0  0  0  0  0  0  0  0  0  0  0
   -2.7441   -0.6326    0.4902 C   0  0  0  0  0  0  0  0  0  0  0  0
   -3.3091   -1.8470    0.0331 C   0  0  0  0  0  0  0  0  0  0  0  0
   -6.3076   -0.1593   -0.4192 C   0  0  0  0  0  0  0  0  0  0  0  0
   -6.0008   -0.0693   -1.7975 C   0  0  0  0  0  0  0  0  0  0  0  0
   -6.6140    0.8727   -2.6266 C   0  0  0  0  0  0  0  0  0  0  0  0
   -8.0318    2.4855   -2.7423 H   0  0  0  0  0  0  0  0  0  0  0  0
   -8.6084    2.3896   -0.3528 H   0  0  0  0  0  0  0  0  0  0  0  0
   -8.3332    1.4008    1.8701 H   0  0  0  0  0  0  0  0  0  0  0  0
   -7.2806   -0.2414    3.3695 H   0  0  0  0  0  0  0  0  0  0  0  0
   -5.6183   -1.8397    2.4968 H   0  0  0  0  0  0  0  0  0  0  0  0
   -6.2531   -3.5352   -0.5033 H   0  0  0  0  0  0  0  0  0  0  0  0
   -4.6792   -5.2689   -1.2777 H   0  0  0  0  0  0  0  0  0  0  0  0
   -2.2553   -4.8589   -1.2244 H   0  0  0  0  0  0  0  0  0  0  0  0
   -0.3623   -3.4195   -0.7256 H   0  0  0  0  0  0  0  0  0  0  0  0
    1.5698   -1.9942   -0.2287 H   0  0  0  0  0  0  0  0  0  0  0  0
    3.4855   -0.5744    0.2677 H   0  0  0  0  0  0  0  0  0  0  0  0
    5.0314    2.1753   -1.5023 H   0  0  0  0  0  0  0  0  0  0  0  0
    5.8484    1.9152   -3.7942 H   0  0  0  0  0  0  0  0  0  0  0  0
    7.5262    0.1700   -4.3374 H   0  0  0  0  0  0  0  0  0  0  0  0
    8.3793   -1.3136   -2.5704 H   0  0  0  0  0  0  0  0  0  0  0  0
    8.4193   -2.0449   -0.2335 H   0  0  0  0  0  0  0  0  0  0  0  0
    7.6380   -1.8376    2.0901 H   0  0  0  0  0  0  0  0  0  0  0  0
    5.9731   -0.1230    2.6967 H   0  0  0  0  0  0  0  0  0  0  0  0
    6.3375    3.1143    1.6313 H   0  0  0  0  0  0  0  0  0  0  0  0
    4.7625    4.8583    2.3803 H   0  0  0  0  0  0  0  0  0  0  0  0
    2.3376    4.4553    2.3099 H   0  0  0  0  0  0  0  0  0  0  0  0
    0.4446    3.0154    1.8114 H   0  0  0  0  0  0  0  0  0  0  0  0
   -1.4854    1.5881    1.3196 H   0  0  0  0  0  0  0  0  0  0  0  0
   -3.4020    0.1655    0.8319 H   0  0  0  0  0  0  0  0  0  0  0  0
   -5.2689   -0.7403   -2.2435 H   0  0  0  0  0  0  0  0  0  0  0  0
   -6.3555    0.9155   -3.6813 H   0  0  0  0  0  0  0  0  0  0  0  0
  1  2  4  0
  2  3  4  0
  3  4  4  0
  4  5  4  0
  5  6  4  0
  6  7  4  0
  7  8  1  0
  8  9  4  0
  9 10  4  0
 10 11  4  0
 11 12  4  0
 12 13  4  0
 13 14  4  0
 14 15  4  0
 15 16  4  0
 16 17  4  0
 17 18  4  0
 18 19  4  0
 19 20  1  0
 20 21  4  0
 21 22  4  0
 22 23  4  0
 23 24  4  0
 24 25  4  0
 25 26  4  0
 26 27  4  0
 27 28  4  0
 28 29  4  0
 19 30  4  0
 30 31  4  0
 31 32  4  0
 32 33  4  0
 33 34  4  0
 34 35  4  0
 35 36  4  0
 36 37  4  0
 37 38  4  0
 38 39  4  0
  7 40  4  0
 40 41  4  0
 41 42  4  0
 42  1  4  0
 40  3  4  0
 39  8  4  0
 39 12  4  0
 37 14  4  0
 35 16  4  0
 33 18  4  0
 29 20  4  0
 26 21  4  0
  1 43  1  0
  2 44  1  0
  4 45  1  0
  5 46  1  0
  6 47  1  0
  9 48  1  0
 10 49  1  0
 11 50  1  0
 13 51  1  0
 15 52  1  0
 17 53  1  0
 22 54  1  0
 23 55  1  0
 24 56  1  0
 25 57  1  0
 27 58  1  0
 28 59  1  0
 29 60  1  0
 30 61  1  0
 31 62  1  0
 32 63  1  0
 34 64  1  0
 36 65  1  0
 38 66  1  0
 41 67  1  0
 42 68  1  0
M  END
