
     RDKit          3D

 68 76  0  0  0  0  0  0  0  0999 V2000
   -7.6631    0.6304    2.2385 C   0  0  0  0  0  0  0  0  0  0  0  0
   -6.8306   -0.4714    2.0970 C   0  0  0  0  0  0  0  0  0  0  0  0
   -6.1619   -0.6877    0.8903 C   0  0  0  0  0  0  0  0  0  0  0  0
   -6.3051    0.1925   -0.2084 C   0  0  0  0  0  0  0  0  0  0  0  0
   -7.1597    1.3127   -0.0456 C   0  0  0  0  0  0  0  0  0  0  0  0
   -7.8266    1.5156    1.1742 C   0  0  0  0  0  0  0  0  0  0  0  0
   -7.3367    2.2167   -1.1035 C   0  0  0  0  0  0  0  0  0  0  0  0
   -6.6845    2.0326   -2.3192 C   0  0  0  0  0  0  0  0  0  0  0  0
   -5.8428    0.9391   -2.4926 C   0  0  0  0  0  0  0  0  0  0  0  0
   -5.6374    0.0108   -1.4547 C   0  0  0  0  0  0  0  0  0  0  0  0
   -4.7270   -1.1269   -1.7078 C   0  0  0  0  0  0  0  0  0  0  0  0
   -5.2527   -2.2689   -2.3399 C   0  0  0  0  0  0  0  0  0  0  0  0
   -4.4491   -3.3715   -2.6080 C   0  0  0  0  0  0  0  0  0  0  0  0
   -3.1048   -3.3497   -2.2486 C   0  0  0  0  0  0  0  0  0  0  0  0
   -2.5440   -2.2290   -1.6174 C   0  0  0  0  0  0  0  0  0  0  0  0
   -1.1848   -2.2266   -1.2597 C   0  0  0  0  0  0  0  0  0  0  0  0
   -0.5908   -1.1251   -0.6241 C   0  0  0  0  0  0  0  0  0  0  0  0
    0.7680   -1.1252   -0.2641 C   0  0  0  0  0  0  0  0  0  0  0  0
    1.3571   -0.0216    0.3764 C   0  0  0  0  0  0  0  0  0  0  0  0
    2.7152   -0.0193    0.7398 C   0  0  0  0  0  0  0  0  0  0  0  0
    3.3268    1.0829    1.3841 C   0  0  0  0  0  0  0  0  0  0  0  0
    4.7021    1.1117    1.7594 C   0  0  0  0  0  0  0  0  0  0  0  0
    5.6163   -0.0236    1.5101 C   0  0  0  0  0  0  0  0  0  0  0  0
    5.7897   -0.9727    2.5350 C   0  0  0  0  0  0  0  0  0  0  0  0
    6.6386   -2.0614    2.3670 C   0  0  0  0  0  0  0  0  0  0  0  0
    7.3305   -2.2199    1.1697 C   0  0  0  0  0  0  0  0  0  0  0  0
    7.1851   -1.2954    0.1248 C   0  0  0  0  0  0  0  0  0  0  0  0
    7.8916   -1.4725   -1.0767 C   0  0  0  0  0  0  0  0  0  0  0  0
    7.7611   -0.5659   -2.1275 C   0  0  0  0  0  0  0  0  0  0  0  0
    6.9217    0.5314   -1.9908 C   0  0  0  0  0  0  0  0  0  0  0  0
    6.2134    0.7219   -0.8025 C   0  0  0  0  0  0  0  0  0  0  0  0
    6.3232   -0.1799    0.2823 C   0  0  0  0  0  0  0  0  0  0  0  0
    5.2231    2.2531    2.3972 C   0  0  0  0  0  0  0  0  0  0  0  0
    4.4168    3.3538    2.6643 C   0  0  0  0  0  0  0  0  0  0  0  0
    3.0742    3.3307    2.2989 C   0  0  0  0  0  0  0  0  0  0  0  0
    2.5182    2.2108    1.6624 C   0  0  0  0  0  0  0  0  0  0  0  0
    1.1604    2.2077    1.3006 C   0  0  0  0  0  0  0  0  0  0  0  0
    0.5704    1.1069    0.6609 C   0  0  0  0  0  0  0  0  0  0  0  0
   -0.7873    1.1079    0.2991 C   0  0  0  0  0  0  0  0  0  0  0  0
   -1.3764    0.0044   -0.3403 C   0  0  0  0  0  0  0  0  0  0  0  0
   -2.7348    0.0038   -0.7012 C   0  0  0  0  0  0  0  0  0  0  0  0
   -3.3499   -1.0994   -1.3395 C   0  0  0  0  0  0  0  0  0  0  0  0
   -8.1858    0.8024    3.1754 H   0  0  0  0  0  0  0  0  0  0  0  0
   -6.6974   -1.1660    2.9222 H   0  0  0  0  0  0  0  0  0  0  0  0
   -5.5163   -1.5610    0.8160 H   0  0  0  0  0  0  0  0  0  0  0  0
   -8.4844    2.3723    1.3052 H   0  0  0  0  0  0  0  0  0  0  0  0
   -7.9906    3.0784   -0.9869 H   0  0  0  0  0  0  0  0  0  0  0  0
   -6.8319    2.7407   -3.1303 H   0  0  0  0  0  0  0  0  0  0  0  0
   -5.3348    0.8071   -3.4464 H   0  0  0  0  0  0  0  0  0  0  0  0
   -6.3039   -2.2970   -2.6218 H   0  0  0  0  0  0  0  0  0  0  0  0
   -4.8700   -4.2468   -3.0956 H   0  0  0  0  0  0  0  0  0  0  0  0
   -2.4925   -4.2225   -2.4666 H   0  0  0  0  0  0  0  0  0  0  0  0
   -0.5755   -3.1020   -1.4786 H   0  0  0  0  0  0  0  0  0  0  0  0
    1.3782   -1.9994   -0.4848 H   0  0  0  0  0  0  0  0  0  0  0  0
    3.3124   -0.9010    0.5110 H   0  0  0  0  0  0  0  0  0  0  0  0
    5.2522   -0.8595    3.4751 H   0  0  0  0  0  0  0  0  0  0  0  0
    6.7618   -2.7852    3.1683 H   0  0  0  0  0  0  0  0  0  0  0  0
    7.9908   -3.0774    1.0575 H   0  0  0  0  0  0  0  0  0  0  0  0
    8.5547   -2.3258   -1.2038 H   0  0  0  0  0  0  0  0  0  0  0  0
    8.3145   -0.7182   -3.0502 H   0  0  0  0  0  0  0  0  0  0  0  0
    6.8137    1.2423   -2.8057 H   0  0  0  0  0  0  0  0  0  0  0  0
    5.5637    1.5924   -0.7315 H   0  0  0  0  0  0  0  0  0  0  0  0
    6.2728    2.2818    2.6848 H   0  0  0  0  0  0  0  0  0  0  0  0
    4.8339    4.2285    3.1561 H   0  0  0  0  0  0  0  0  0  0  0  0
    2.4592    4.2017    2.5166 H   0  0  0  0  0  0  0  0  0  0  0  0
    0.5481    3.0808    1.5211 H   0  0  0  0  0  0  0  0  0  0  0  0
   -1.3970    1.9823    0.5196 H   0  0  0  0  0  0  0  0  0  0  0  0
   -3.3295    0.8875   -0.4735 H   0  0  0  0  0  0  0  0  0  0  0  0
  1  2  4  0
  2  3  4  0
  3  4  4  0
  4  5  4  0
  5  6  4  0
  5  7  4  0
  7  8  4  0
  8  9  4  0
  9 10  4  0
 10 11  1  0
 11 12  4  0
 12 13  4  0
 13 14  4  0
 14 15  4  0
 15 16  4  0
 16 17  4  0
 17 18  4  0
 18 19  4  0
 19 20  4  0
 20 21  4  0
 21 22  4  0
 22 23  1  0
 23 24  4  0
 24 25  4  0
 25 26  4  0
 26 27  4  0
 27 28  4  0
 28 29  4  0
 29 30  4  0
 30 31  4  0
 31 32  4  0
 22 33  4  0
 33 34  4  0
 34 35  4  0
 35 36  4  0
 36 37  4  0
 37 38  4  0
 38 39  4  0
 39 40  4  0
 40 41  4  0
 41 42  4  0
  6  1  4  0
 42 11  4  0
 10  4  4  0
 42 15  4  0
 40 17  4  0
 38 19  4  0
 36 21  4  0
 32 23  4  0
 32 27  4  0
  1 43  1  0
  2 44  1  0
  3 45  1  0
  6 46  1  0
  7 47  1  0
  8 48  1  0
  9 49  1  0
 12 50  1  0
 13 51  1  0
 14 52  1  0
 16 53  1  0
 18 54  1  0
 20 55  1  0
 24 56  1  0
 25 57  1  0
 26 58  1  0
 28 59  1  0
 29 60  1  0
 30 61  1  0
 31 62  1  0
 33 63  1  0
 34 64  1  0
 35 65  1  0
 37 66  1  0
 39 67  1  0
 41 68  1  0
M  END
