
     RDKit          3D

 80 90  0  0  0  0  0  0  0  0999 V2000
  -11.4108    1.9835   -1.1770 C   0  0  0  0  0  0  0  0  0  0  0  0
  -10.6398    0.9333   -1.6779 C   0  0  0  0  0  0  0  0  0  0  0  0
   -9.5275    0.4544   -0.9659 C   0  0  0  0  0  0  0  0  0  0  0  0
   -8.7426   -0.6023   -1.4566 C   0  0  0  0  0  0  0  0  0  0  0  0
   -7.6313   -1.0812   -0.7432 C   0  0  0  0  0  0  0  0  0  0  0  0
   -6.8484   -2.1378   -1.2325 C   0  0  0  0  0  0  0  0  0  0  0  0
   -5.7463   -2.6039   -0.5114 C   0  0  0  0  0  0  0  0  0  0  0  0
   -5.3987   -2.0236    0.7141 C   0  0  0  0  0  0  0  0  0  0  0  0
   -4.2394   -2.5144    1.4758 C   0  0  0  0  0  0  0  0  0  0  0  0
   -4.4554   -3.5215    2.4341 C   0  0  0  0  0  0  0  0  0  0  0  0
   -3.4030   -4.0303    3.1871 C   0  0  0  0  0  0  0  0  0  0  0  0
   -2.1154   -3.5393    2.9939 C   0  0  0  0  0  0  0  0  0  0  0  0
   -1.8604   -2.5347    2.0482 C   0  0  0  0  0  0  0  0  0  0  0  0
   -0.5530   -2.0515    1.8682 C   0  0  0  0  0  0  0  0  0  0  0  0
   -0.2600   -1.0469    0.9329 C   0  0  0  0  0  0  0  0  0  0  0  0
    1.0483   -0.5655    0.7552 C   0  0  0  0  0  0  0  0  0  0  0  0
    1.3389    0.4405   -0.1820 C   0  0  0  0  0  0  0  0  0  0  0  0
    2.6471    0.9231   -0.3610 C   0  0  0  0  0  0  0  0  0  0  0  0
    2.9618    1.9346   -1.3000 C   0  0  0  0  0  0  0  0  0  0  0  0
    4.2799    2.4394   -1.5001 C   0  0  0  0  0  0  0  0  0  0  0  0
    5.4377    1.9425   -0.7403 C   0  0  0  0  0  0  0  0  0  0  0  0
    5.8359    2.5693    0.4462 C   0  0  0  0  0  0  0  0  0  0  0  0
    6.9345    2.0952    1.1674 C   0  0  0  0  0  0  0  0  0  0  0  0
    7.6622    0.9830    0.7177 C   0  0  0  0  0  0  0  0  0  0  0  0
    8.7683    0.4944    1.4324 C   0  0  0  0  0  0  0  0  0  0  0  0
    9.4966   -0.6193    0.9821 C   0  0  0  0  0  0  0  0  0  0  0  0
   10.6032   -1.1087    1.6958 C   0  0  0  0  0  0  0  0  0  0  0  0
   11.3172   -2.2162    1.2356 C   0  0  0  0  0  0  0  0  0  0  0  0
   10.9344   -2.8484    0.0568 C   0  0  0  0  0  0  0  0  0  0  0  0
    9.8370   -2.3742   -0.6636 C   0  0  0  0  0  0  0  0  0  0  0  0
    9.1084   -1.2606   -0.2137 C   0  0  0  0  0  0  0  0  0  0  0  0
    8.0021   -0.7715   -0.9279 C   0  0  0  0  0  0  0  0  0  0  0  0
    7.2742    0.3425   -0.4776 C   0  0  0  0  0  0  0  0  0  0  0  0
    6.1672    0.8317   -1.1925 C   0  0  0  0  0  0  0  0  0  0  0  0
    4.4980    3.4480   -2.4561 C   0  0  0  0  0  0  0  0  0  0  0  0
    3.4467    3.9592   -3.2091 C   0  0  0  0  0  0  0  0  0  0  0  0
    2.1582    3.4693   -3.0179 C   0  0  0  0  0  0  0  0  0  0  0  0
    1.9009    2.4638   -2.0734 C   0  0  0  0  0  0  0  0  0  0  0  0
    0.5929    1.9815   -1.8938 C   0  0  0  0  0  0  0  0  0  0  0  0
    0.2984    0.9769   -0.9586 C   0  0  0  0  0  0  0  0  0  0  0  0
   -1.0101    0.4956   -0.7805 C   0  0  0  0  0  0  0  0  0  0  0  0
   -1.3009   -0.5106    0.1568 C   0  0  0  0  0  0  0  0  0  0  0  0
   -2.6090   -0.9940    0.3370 C   0  0  0  0  0  0  0  0  0  0  0  0
   -2.9223   -2.0072    1.2749 C   0  0  0  0  0  0  0  0  0  0  0  0
   -6.1831   -0.9682    1.2055 C   0  0  0  0  0  0  0  0  0  0  0  0
   -7.2953   -0.4884    0.4918 C   0  0  0  0  0  0  0  0  0  0  0  0
   -8.0796    0.5689    0.9823 C   0  0  0  0  0  0  0  0  0  0  0  0
   -9.1917    1.0477    0.2699 C   0  0  0  0  0  0  0  0  0  0  0  0
   -9.9773    2.1039    0.7606 C   0  0  0  0  0  0  0  0  0  0  0  0
  -11.0798    2.5682    0.0414 C   0  0  0  0  0  0  0  0  0  0  0  0
  -12.2689    2.3433   -1.7386 H   0  0  0  0  0  0  0  0  0  0  0  0
  -10.9146    0.4891   -2.6320 H   0  0  0  0  0  0  0  0  0  0  0  0
   -9.0016   -1.0599   -2.4096 H   0  0  0  0  0  0  0  0  0  0  0  0
   -7.0909   -2.6096   -2.1821 H   0  0  0  0  0  0  0  0  0  0  0  0
   -5.1553   -3.4250   -0.9126 H   0  0  0  0  0  0  0  0  0  0  0  0
   -5.4587   -3.9135    2.5929 H   0  0  0  0  0  0  0  0  0  0  0  0
   -3.5859   -4.8085    3.9233 H   0  0  0  0  0  0  0  0  0  0  0  0
   -1.3052   -3.9506    3.5927 H   0  0  0  0  0  0  0  0  0  0  0  0
    0.2552   -2.4659    2.4690 H   0  0  0  0  0  0  0  0  0  0  0  0
    1.8553   -0.9808    1.3566 H   0  0  0  0  0  0  0  0  0  0  0  0
    3.4420    0.4970    0.2498 H   0  0  0  0  0  0  0  0  0  0  0  0
    5.2864    3.4320    0.8177 H   0  0  0  0  0  0  0  0  0  0  0  0
    7.2167    2.6037    2.0867 H   0  0  0  0  0  0  0  0  0  0  0  0
    9.0684    0.9894    2.3541 H   0  0  0  0  0  0  0  0  0  0  0  0
   10.9177   -0.6280    2.6195 H   0  0  0  0  0  0  0  0  0  0  0  0
   12.1712   -2.5839    1.7983 H   0  0  0  0  0  0  0  0  0  0  0  0
   11.4890   -3.7109   -0.3036 H   0  0  0  0  0  0  0  0  0  0  0  0
    9.5528   -2.8818   -1.5827 H   0  0  0  0  0  0  0  0  0  0  0  0
    7.7021   -1.2663   -1.8499 H   0  0  0  0  0  0  0  0  0  0  0  0
    5.8609    0.3418   -2.1158 H   0  0  0  0  0  0  0  0  0  0  0  0
    5.5022    3.8376   -2.6147 H   0  0  0  0  0  0  0  0  0  0  0  0
    3.6312    4.7380   -3.9442 H   0  0  0  0  0  0  0  0  0  0  0  0
    1.3497    3.8825   -3.6175 H   0  0  0  0  0  0  0  0  0  0  0  0
   -0.2145    2.3968   -2.4949 H   0  0  0  0  0  0  0  0  0  0  0  0
   -1.8172    0.9110   -1.3818 H   0  0  0  0  0  0  0  0  0  0  0  0
   -3.4050   -0.5666   -0.2713 H   0  0  0  0  0  0  0  0  0  0  0  0
   -5.9173   -0.5151    2.1595 H   0  0  0  0  0  0  0  0  0  0  0  0
   -7.8200    1.0268    1.9352 H   0  0  0  0  0  0  0  0  0  0  0  0
   -9.7353    2.5736    1.7114 H   0  0  0  0  0  0  0  0  0  0  0  0
  -11.6791    3.3859    0.4335 H   0  0  0  0  0  0  0  0  0  0  0  0
  1  2  4  0
  2  3  4  0
  3  4  4  0
  4  5  4  0
  5  6  4  0
  6  7  4  0
  7  8  4  0
  8  9  1  0
  9 10  4  0
 10 11  4  0
 11 12  4  0
 12 13  4  0
 13 14  4  0
 14 15  4  0
 15 16  4  0
 16 17  4  0
 17 18  4  0
 18 19  4  0
 19 20  4  0
 20 21  1  0
 21 22  4  0
 22 23  4  0
 23 24  4  0
 24 25  4  0
 25 26  4  0
 26 27  4  0
 27 28  4  0
 28 29  4  0
 29 30  4  0
 30 31  4  0
 31 32  4  0
 32 33  4  0
 33 34  4  0
 20 35  4  0
 35 36  4  0
 36 37  4  0
 37 38  4  0
 38 39  4  0
 39 40  4  0
 40 41  4  0
 41 42  4  0
 42 43  4  0
 43 44  4  0
  8 45  4  0
 45 46  4  0
 46 47  4  0
 47 48  4  0
 48 49  4  0
 49 50  4  0
 50  1  4  0
 48  3  4  0
 46  5  4  0
 44  9  4  0
 44 13  4  0
 42 15  4  0
 40 17  4  0
 38 19  4  0
 34 21  4  0
 33 24  4  0
 31 26  4  0
  1 51  1  0
  2 52  1  0
  4 53  1  0
  6 54  1  0
  7 55  1  0
 10 56  1  0
 11 57  1  0
 12 58  1  0
 14 59  1  0
 16 60  1  0
 18 61  1  0
 22 62  1  0
 23 63  1  0
 25 64  1  0
 27 65  1  0
 28 66  1  0
 29 67  1  0
 30 68  1  0
 32 69  1  0
 34 70  1  0
 35 71  1  0
 36 72  1  0
 37 73  1  0
 39 74  1  0
 41 75  1  0
 43 76  1  0
 45 77  1  0
 47 78  1  0
 49 79  1  0
 50 80  1  0
M  END
