
     RDKit          3D

100114  0  0  0  0  0  0  0  0999 V2000
  -15.4884   -0.6553    2.7261 C   0  0  0  0  0  0  0  0  0  0  0  0
  -14.6226    0.3978    2.4282 C   0  0  0  0  0  0  0  0  0  0  0  0
  -13.4310    0.1675    1.7215 C   0  0  0  0  0  0  0  0  0  0  0  0
  -12.5455    1.2106    1.4108 C   0  0  0  0  0  0  0  0  0  0  0  0
  -11.3667    0.9858    0.7119 C   0  0  0  0  0  0  0  0  0  0  0  0
  -10.5509    2.0202    0.4383 N   0  0  0  0  0  0  0  0  0  0  0  0
   -9.4198    1.7574   -0.2412 C   0  0  0  0  0  0  0  0  0  0  0  0
   -8.5477    2.7946   -0.5454 C   0  0  0  0  0  0  0  0  0  0  0  0
   -7.3553    2.5750   -1.2511 C   0  0  0  0  0  0  0  0  0  0  0  0
   -6.4765    3.6253   -1.5560 C   0  0  0  0  0  0  0  0  0  0  0  0
   -5.2932    3.3827   -2.2579 C   0  0  0  0  0  0  0  0  0  0  0  0
   -4.9606    2.0866   -2.6702 C   0  0  0  0  0  0  0  0  0  0  0  0
   -3.7145    1.8301   -3.4101 C   0  0  0  0  0  0  0  0  0  0  0  0
   -3.7051    2.0725   -4.7961 C   0  0  0  0  0  0  0  0  0  0  0  0
   -2.5627    1.8435   -5.5554 C   0  0  0  0  0  0  0  0  0  0  0  0
   -1.4094    1.3660   -4.9402 C   0  0  0  0  0  0  0  0  0  0  0  0
   -1.3798    1.1129   -3.5602 C   0  0  0  0  0  0  0  0  0  0  0  0
   -0.2058    0.6301   -2.9575 C   0  0  0  0  0  0  0  0  0  0  0  0
   -0.1363    0.3692   -1.5802 C   0  0  0  0  0  0  0  0  0  0  0  0
    1.0390   -0.1147   -0.9809 C   0  0  0  0  0  0  0  0  0  0  0  0
    1.1071   -0.3742    0.3987 C   0  0  0  0  0  0  0  0  0  0  0  0
    2.2821   -0.8591    1.0002 C   0  0  0  0  0  0  0  0  0  0  0  0
    2.3699   -1.1299    2.3872 C   0  0  0  0  0  0  0  0  0  0  0  0
    3.5474   -1.6258    3.0200 C   0  0  0  0  0  0  0  0  0  0  0  0
    4.7826   -1.9138    2.2731 C   0  0  0  0  0  0  0  0  0  0  0  0
    4.9641   -3.1515    1.6436 C   0  0  0  0  0  0  0  0  0  0  0  0
    6.1356   -3.4251    0.9333 C   0  0  0  0  0  0  0  0  0  0  0  0
    7.1555   -2.4663    0.8391 C   0  0  0  0  0  0  0  0  0  0  0  0
    8.3401   -2.7186    0.1302 C   0  0  0  0  0  0  0  0  0  0  0  0
    9.3533   -1.7731    0.0360 C   0  0  0  0  0  0  0  0  0  0  0  0
   10.4703   -2.0637   -0.6562 N   0  0  0  0  0  0  0  0  0  0  0  0
   11.4275   -1.1198   -0.7180 C   0  0  0  0  0  0  0  0  0  0  0  0
   12.5986   -1.3766   -1.4191 C   0  0  0  0  0  0  0  0  0  0  0  0
   13.6267   -0.4266   -1.5144 C   0  0  0  0  0  0  0  0  0  0  0  0
   14.8099   -0.6892   -2.2241 C   0  0  0  0  0  0  0  0  0  0  0  0
   15.8192    0.2711   -2.3056 C   0  0  0  0  0  0  0  0  0  0  0  0
   15.6583    1.5036   -1.6795 C   0  0  0  0  0  0  0  0  0  0  0  0
   14.4878    1.7781   -0.9709 C   0  0  0  0  0  0  0  0  0  0  0  0
   13.4637    0.8209   -0.8807 C   0  0  0  0  0  0  0  0  0  0  0  0
   12.2782    1.0737   -0.1739 C   0  0  0  0  0  0  0  0  0  0  0  0
   11.2644    0.1287   -0.0832 C   0  0  0  0  0  0  0  0  0  0  0  0
   10.1462    0.4198    0.6065 N   0  0  0  0  0  0  0  0  0  0  0  0
    9.1898   -0.5245    0.6699 C   0  0  0  0  0  0  0  0  0  0  0  0
    8.0184   -0.2683    1.3719 C   0  0  0  0  0  0  0  0  0  0  0  0
    6.9903   -1.2189    1.4703 C   0  0  0  0  0  0  0  0  0  0  0  0
    5.8052   -0.9564    2.1807 C   0  0  0  0  0  0  0  0  0  0  0  0
    3.5416   -1.8584    4.4076 C   0  0  0  0  0  0  0  0  0  0  0  0
    2.4039   -1.6154    5.1701 C   0  0  0  0  0  0  0  0  0  0  0  0
    1.2509   -1.1353    4.5565 C   0  0  0  0  0  0  0  0  0  0  0  0
    1.2187   -0.8889    3.1754 C   0  0  0  0  0  0  0  0  0  0  0  0
    0.0454   -0.4031    2.5738 C   0  0  0  0  0  0  0  0  0  0  0  0
   -0.0260   -0.1438    1.1962 C   0  0  0  0  0  0  0  0  0  0  0  0
   -1.2018    0.3403    0.5969 C   0  0  0  0  0  0  0  0  0  0  0  0
   -1.2694    0.5989   -0.7830 C   0  0  0  0  0  0  0  0  0  0  0  0
   -2.4443    1.0821   -1.3857 C   0  0  0  0  0  0  0  0  0  0  0  0
   -2.5340    1.3452   -2.7742 C   0  0  0  0  0  0  0  0  0  0  0  0
   -5.8435    1.0374   -2.3685 C   0  0  0  0  0  0  0  0  0  0  0  0
   -7.0365    1.2669   -1.6615 C   0  0  0  0  0  0  0  0  0  0  0  0
   -7.9220    0.2234   -1.3515 C   0  0  0  0  0  0  0  0  0  0  0  0
   -9.1009    0.4468   -0.6516 C   0  0  0  0  0  0  0  0  0  0  0  0
   -9.9164   -0.5876   -0.3774 N   0  0  0  0  0  0  0  0  0  0  0  0
  -11.0477   -0.3251    0.3020 C   0  0  0  0  0  0  0  0  0  0  0  0
  -11.9199   -1.3622    0.6066 C   0  0  0  0  0  0  0  0  0  0  0  0
  -13.1125   -1.1422    1.3123 C   0  0  0  0  0  0  0  0  0  0  0  0
  -13.9930   -2.1927    1.6190 C   0  0  0  0  0  0  0  0  0  0  0  0
  -15.1739   -1.9494    2.3219 C   0  0  0  0  0  0  0  0  0  0  0  0
  -16.4079   -0.4644    3.2737 H   0  0  0  0  0  0  0  0  0  0  0  0
  -14.8854    1.4027    2.7525 H   0  0  0  0  0  0  0  0  0  0  0  0
  -12.7727    2.2292    1.7178 H   0  0  0  0  0  0  0  0  0  0  0  0
   -8.8126    3.7982   -0.2194 H   0  0  0  0  0  0  0  0  0  0  0  0
   -6.7059    4.6438   -1.2488 H   0  0  0  0  0  0  0  0  0  0  0  0
   -4.6255    4.2134   -2.4797 H   0  0  0  0  0  0  0  0  0  0  0  0
   -4.6032    2.4411   -5.2892 H   0  0  0  0  0  0  0  0  0  0  0  0
   -2.5713    2.0349   -6.6252 H   0  0  0  0  0  0  0  0  0  0  0  0
   -0.5255    1.1923   -5.5513 H   0  0  0  0  0  0  0  0  0  0  0  0
    0.6744    0.4537   -3.5738 H   0  0  0  0  0  0  0  0  0  0  0  0
    1.9174   -0.2926   -1.5990 H   0  0  0  0  0  0  0  0  0  0  0  0
    3.1523   -1.0288    0.3677 H   0  0  0  0  0  0  0  0  0  0  0  0
    4.1865   -3.9112    1.7025 H   0  0  0  0  0  0  0  0  0  0  0  0
    6.2438   -4.3961    0.4542 H   0  0  0  0  0  0  0  0  0  0  0  0
    8.4864   -3.6762   -0.3653 H   0  0  0  0  0  0  0  0  0  0  0  0
   12.7051   -2.3461   -1.9013 H   0  0  0  0  0  0  0  0  0  0  0  0
   14.9538   -1.6470   -2.7201 H   0  0  0  0  0  0  0  0  0  0  0  0
   16.7305    0.0559   -2.8579 H   0  0  0  0  0  0  0  0  0  0  0  0
   16.4439    2.2526   -1.7422 H   0  0  0  0  0  0  0  0  0  0  0  0
   14.3804    2.7473   -0.4881 H   0  0  0  0  0  0  0  0  0  0  0  0
   12.1322    2.0306    0.3226 H   0  0  0  0  0  0  0  0  0  0  0  0
    7.9129    0.7017    1.8537 H   0  0  0  0  0  0  0  0  0  0  0  0
    5.6687    0.0084    2.6682 H   0  0  0  0  0  0  0  0  0  0  0  0
    4.4363   -2.2376    4.8987 H   0  0  0  0  0  0  0  0  0  0  0  0
    2.4155   -1.8010    6.2410 H   0  0  0  0  0  0  0  0  0  0  0  0
    0.3703   -0.9528    5.1698 H   0  0  0  0  0  0  0  0  0  0  0  0
   -0.8335   -0.2226    3.1910 H   0  0  0  0  0  0  0  0  0  0  0  0
   -2.0803    0.5179    1.2150 H   0  0  0  0  0  0  0  0  0  0  0  0
   -3.3117    1.2594   -0.7517 H   0  0  0  0  0  0  0  0  0  0  0  0
   -5.5904    0.0274   -2.6896 H   0  0  0  0  0  0  0  0  0  0  0  0
   -7.6948   -0.7951   -1.6598 H   0  0  0  0  0  0  0  0  0  0  0  0
  -11.6558   -2.3663    0.2813 H   0  0  0  0  0  0  0  0  0  0  0  0
  -13.7643   -3.2111    1.3115 H   0  0  0  0  0  0  0  0  0  0  0  0
  -15.8474   -2.7708    2.5533 H   0  0  0  0  0  0  0  0  0  0  0  0
  1  2  4  0
  2  3  4  0
  3  4  4  0
  4  5  4  0
  5  6  4  0
  6  7  4  0
  7  8  4  0
  8  9  4  0
  9 10  4  0
 10 11  4  0
 11 12  4  0
 12 13  1  0
 13 14  4  0
 14 15  4  0
 15 16  4  0
 16 17  4  0
 17 18  4  0
 18 19  4  0
 19 20  4  0
 20 21  4  0
 21 22  4  0
 22 23  4  0
 23 24  4  0
 24 25  1  0
 25 26  4  0
 26 27  4  0
 27 28  4  0
 28 29  4  0
 29 30  4  0
 30 31  4  0
 31 32  4  0
 32 33  4  0
 33 34  4  0
 34 35  4  0
 35 36  4  0
 36 37  4  0
 37 38  4  0
 38 39  4  0
 39 40  4  0
 40 41  4  0
 41 42  4  0
 42 43  4  0
 43 44  4  0
 44 45  4  0
 45 46  4  0
 24 47  4  0
 47 48  4  0
 48 49  4  0
 49 50  4  0
 50 51  4  0
 51 52  4  0
 52 53  4  0
 53 54  4  0
 54 55  4  0
 55 56  4  0
 12 57  4  0
 57 58  4  0
 58 59  4  0
 59 60  4  0
 60 61  4  0
 61 62  4  0
 62 63  4  0
 63 64  4  0
 64 65  4  0
 65 66  4  0
 66  1  4  0
 64  3  4  0
 62  5  4  0
 60  7  4  0
 58  9  4  0
 56 13  4  0
 56 17  4  0
 54 19  4  0
 52 21  4  0
 50 23  4  0
 46 25  4  0
 45 28  4  0
 43 30  4  0
 41 32  4  0
 39 34  4  0
  1 67  1  0
  2 68  1  0
  4 69  1  0
  8 70  1  0
 10 71  1  0
 11 72  1  0
 14 73  1  0
 15 74  1  0
 16 75  1  0
 18 76  1  0
 20 77  1  0
 22 78  1  0
 26 79  1  0
 27 80  1  0
 29 81  1  0
 33 82  1  0
 35 83  1  0
 36 84  1  0
 37 85  1  0
 38 86  1  0
 40 87  1  0
 44 88  1  0
 46 89  1  0
 47 90  1  0
 48 91  1  0
 49 92  1  0
 51 93  1  0
 53 94  1  0
 55 95  1  0
 57 96  1  0
 59 97  1  0
 63 98  1  0
 65 99  1  0
 66100  1  0
M  END
