
     RDKit          3D

100114  0  0  0  0  0  0  0  0999 V2000
  -15.5216   -0.3044    2.5832 C   0  0  0  0  0  0  0  0  0  0  0  0
  -15.1525   -1.6339    2.7652 C   0  0  0  0  0  0  0  0  0  0  0  0
  -13.9266   -2.0899    2.2784 C   0  0  0  0  0  0  0  0  0  0  0  0
  -13.0552   -1.2195    1.6032 C   0  0  0  0  0  0  0  0  0  0  0  0
  -11.8179   -1.6552    1.1052 C   0  0  0  0  0  0  0  0  0  0  0  0
  -10.9543   -0.7966    0.4372 C   0  0  0  0  0  0  0  0  0  0  0  0
   -9.7785   -1.2630   -0.0217 N   0  0  0  0  0  0  0  0  0  0  0  0
   -8.9722   -0.3971   -0.6633 C   0  0  0  0  0  0  0  0  0  0  0  0
   -7.7479   -0.8332   -1.1557 C   0  0  0  0  0  0  0  0  0  0  0  0
   -6.8712    0.0295   -1.8325 C   0  0  0  0  0  0  0  0  0  0  0  0
   -5.6332   -0.4143   -2.3312 C   0  0  0  0  0  0  0  0  0  0  0  0
   -4.7617    0.4580   -3.0030 C   0  0  0  0  0  0  0  0  0  0  0  0
   -3.4690   -0.0190   -3.5216 C   0  0  0  0  0  0  0  0  0  0  0  0
   -3.3943   -0.3854   -4.8778 C   0  0  0  0  0  0  0  0  0  0  0  0
   -2.2039   -0.8444   -5.4316 C   0  0  0  0  0  0  0  0  0  0  0  0
   -1.0657   -0.9443   -4.6373 C   0  0  0  0  0  0  0  0  0  0  0  0
   -1.1003   -0.5883   -3.2805 C   0  0  0  0  0  0  0  0  0  0  0  0
    0.0596   -0.6970   -2.4940 C   0  0  0  0  0  0  0  0  0  0  0  0
    0.0636   -0.3516   -1.1334 C   0  0  0  0  0  0  0  0  0  0  0  0
    1.2232   -0.4648   -0.3469 C   0  0  0  0  0  0  0  0  0  0  0  0
    1.2205   -0.1212    1.0159 C   0  0  0  0  0  0  0  0  0  0  0  0
    2.3775   -0.2373    1.8055 C   0  0  0  0  0  0  0  0  0  0  0  0
    2.3996    0.1085    3.1785 C   0  0  0  0  0  0  0  0  0  0  0  0
    3.5620    0.0051    3.9984 C   0  0  0  0  0  0  0  0  0  0  0  0
    4.8555   -0.4606    3.4730 C   0  0  0  0  0  0  0  0  0  0  0  0
    5.6873    0.4069    2.7471 C   0  0  0  0  0  0  0  0  0  0  0  0
    6.9136   -0.0297    2.2184 C   0  0  0  0  0  0  0  0  0  0  0  0
    7.7409    0.8269    1.4769 C   0  0  0  0  0  0  0  0  0  0  0  0
    8.9488    0.3967    0.9439 C   0  0  0  0  0  0  0  0  0  0  0  0
    9.7023    1.2550    0.2336 N   0  0  0  0  0  0  0  0  0  0  0  0
   10.8633    0.7955   -0.2673 C   0  0  0  0  0  0  0  0  0  0  0  0
   11.6743    1.6467   -1.0067 C   0  0  0  0  0  0  0  0  0  0  0  0
   12.8943    1.2180   -1.5512 C   0  0  0  0  0  0  0  0  0  0  0  0
   13.7124    2.0810   -2.2987 C   0  0  0  0  0  0  0  0  0  0  0  0
   14.9220    1.6322   -2.8309 C   0  0  0  0  0  0  0  0  0  0  0  0
   15.3278    0.3173   -2.6225 C   0  0  0  0  0  0  0  0  0  0  0  0
   14.5247   -0.5511   -1.8816 C   0  0  0  0  0  0  0  0  0  0  0  0
   13.3050   -0.1129   -1.3403 C   0  0  0  0  0  0  0  0  0  0  0  0
   12.4809   -0.9675   -0.5923 C   0  0  0  0  0  0  0  0  0  0  0  0
   11.2743   -0.5367   -0.0559 C   0  0  0  0  0  0  0  0  0  0  0  0
   10.5198   -1.3953    0.6542 N   0  0  0  0  0  0  0  0  0  0  0  0
    9.3594   -0.9354    1.1555 C   0  0  0  0  0  0  0  0  0  0  0  0
    8.5466   -1.7871    1.8924 C   0  0  0  0  0  0  0  0  0  0  0  0
    7.3232   -1.3597    2.4297 C   0  0  0  0  0  0  0  0  0  0  0  0
    6.4994   -2.2243    3.1660 C   0  0  0  0  0  0  0  0  0  0  0  0
    5.2791   -1.7790    3.6802 C   0  0  0  0  0  0  0  0  0  0  0  0
    3.4853    0.3624    5.3568 C   0  0  0  0  0  0  0  0  0  0  0  0
    2.2941    0.8190    5.9102 C   0  0  0  0  0  0  0  0  0  0  0  0
    1.1584    0.9259    5.1129 C   0  0  0  0  0  0  0  0  0  0  0  0
    1.1945    0.5766    3.7545 C   0  0  0  0  0  0  0  0  0  0  0  0
    0.0367    0.6898    2.9660 C   0  0  0  0  0  0  0  0  0  0  0  0
    0.0348    0.3485    1.6044 C   0  0  0  0  0  0  0  0  0  0  0  0
   -1.1235    0.4639    0.8173 C   0  0  0  0  0  0  0  0  0  0  0  0
   -1.1225    0.1182   -0.5448 C   0  0  0  0  0  0  0  0  0  0  0  0
   -2.2819    0.2305   -1.3324 C   0  0  0  0  0  0  0  0  0  0  0  0
   -2.3054   -0.1189   -2.7038 C   0  0  0  0  0  0  0  0  0  0  0  0
   -5.1511    1.7917   -3.1770 C   0  0  0  0  0  0  0  0  0  0  0  0
   -6.3785    2.2456   -2.6882 C   0  0  0  0  0  0  0  0  0  0  0  0
   -7.2466    1.3739   -2.0140 C   0  0  0  0  0  0  0  0  0  0  0  0
   -8.4838    1.8086   -1.5149 C   0  0  0  0  0  0  0  0  0  0  0  0
   -9.3470    0.9495   -0.8471 C   0  0  0  0  0  0  0  0  0  0  0  0
  -10.5226    1.4163   -0.3883 N   0  0  0  0  0  0  0  0  0  0  0  0
  -11.3283    0.5502    0.2528 C   0  0  0  0  0  0  0  0  0  0  0  0
  -12.5517    0.9881    0.7433 C   0  0  0  0  0  0  0  0  0  0  0  0
  -13.4289    0.1262    1.4191 C   0  0  0  0  0  0  0  0  0  0  0  0
  -14.6656    0.5715    1.9142 C   0  0  0  0  0  0  0  0  0  0  0  0
  -16.4762    0.0522    2.9618 H   0  0  0  0  0  0  0  0  0  0  0  0
  -15.8183   -2.3174    3.2861 H   0  0  0  0  0  0  0  0  0  0  0  0
  -13.6553   -3.1327    2.4302 H   0  0  0  0  0  0  0  0  0  0  0  0
  -11.5105   -2.6905    1.2368 H   0  0  0  0  0  0  0  0  0  0  0  0
   -7.4773   -1.8762   -1.0036 H   0  0  0  0  0  0  0  0  0  0  0  0
   -5.3364   -1.4540   -2.1959 H   0  0  0  0  0  0  0  0  0  0  0  0
   -4.2782   -0.3141   -5.5094 H   0  0  0  0  0  0  0  0  0  0  0  0
   -2.1645   -1.1252   -6.4805 H   0  0  0  0  0  0  0  0  0  0  0  0
   -0.1437   -1.3058   -5.0892 H   0  0  0  0  0  0  0  0  0  0  0  0
    0.9791   -1.0605   -2.9505 H   0  0  0  0  0  0  0  0  0  0  0  0
    2.1439   -0.8265   -0.8023 H   0  0  0  0  0  0  0  0  0  0  0  0
    3.2854   -0.6107    1.3343 H   0  0  0  0  0  0  0  0  0  0  0  0
    5.3642    1.4350    2.5861 H   0  0  0  0  0  0  0  0  0  0  0  0
    7.4412    1.8579    1.3005 H   0  0  0  0  0  0  0  0  0  0  0  0
   11.3390    2.6706   -1.1579 H   0  0  0  0  0  0  0  0  0  0  0  0
   13.4118    3.1122   -2.4722 H   0  0  0  0  0  0  0  0  0  0  0  0
   15.5465    2.3097   -3.4078 H   0  0  0  0  0  0  0  0  0  0  0  0
   16.2697   -0.0338   -3.0365 H   0  0  0  0  0  0  0  0  0  0  0  0
   14.8590   -1.5754   -1.7297 H   0  0  0  0  0  0  0  0  0  0  0  0
   12.7796   -1.9990   -0.4179 H   0  0  0  0  0  0  0  0  0  0  0  0
    8.8821   -2.8109    2.0439 H   0  0  0  0  0  0  0  0  0  0  0  0
    6.7978   -3.2561    3.3407 H   0  0  0  0  0  0  0  0  0  0  0  0
    4.6516   -2.4714    4.2384 H   0  0  0  0  0  0  0  0  0  0  0  0
    4.3685    0.2886    5.9892 H   0  0  0  0  0  0  0  0  0  0  0  0
    2.2511    1.0937    6.9608 H   0  0  0  0  0  0  0  0  0  0  0  0
    0.2362    1.2868    5.5642 H   0  0  0  0  0  0  0  0  0  0  0  0
   -0.8843    1.0515    3.4211 H   0  0  0  0  0  0  0  0  0  0  0  0
   -2.0431    0.8266    1.2735 H   0  0  0  0  0  0  0  0  0  0  0  0
   -3.1906    0.6013   -0.8606 H   0  0  0  0  0  0  0  0  0  0  0  0
   -4.4937    2.4880   -3.6947 H   0  0  0  0  0  0  0  0  0  0  0  0
   -6.6505    3.2884   -2.8395 H   0  0  0  0  0  0  0  0  0  0  0  0
   -8.7924    2.8437   -1.6456 H   0  0  0  0  0  0  0  0  0  0  0  0
  -12.8211    2.0310    0.5905 H   0  0  0  0  0  0  0  0  0  0  0  0
  -14.9717    1.6072    1.7817 H   0  0  0  0  0  0  0  0  0  0  0  0
  1  2  4  0
  2  3  4  0
  3  4  4  0
  4  5  4  0
  5  6  4  0
  6  7  4  0
  7  8  4  0
  8  9  4  0
  9 10  4  0
 10 11  4  0
 11 12  4  0
 12 13  1  0
 13 14  4  0
 14 15  4  0
 15 16  4  0
 16 17  4  0
 17 18  4  0
 18 19  4  0
 19 20  4  0
 20 21  4  0
 21 22  4  0
 22 23  4  0
 23 24  4  0
 24 25  1  0
 25 26  4  0
 26 27  4  0
 27 28  4  0
 28 29  4  0
 29 30  4  0
 30 31  4  0
 31 32  4  0
 32 33  4  0
 33 34  4  0
 34 35  4  0
 35 36  4  0
 36 37  4  0
 37 38  4  0
 38 39  4  0
 39 40  4  0
 40 41  4  0
 41 42  4  0
 42 43  4  0
 43 44  4  0
 44 45  4  0
 45 46  4  0
 24 47  4  0
 47 48  4  0
 48 49  4  0
 49 50  4  0
 50 51  4  0
 51 52  4  0
 52 53  4  0
 53 54  4  0
 54 55  4  0
 55 56  4  0
 12 57  4  0
 57 58  4  0
 58 59  4  0
 59 60  4  0
 60 61  4  0
 61 62  4  0
 62 63  4  0
 63 64  4  0
 64 65  4  0
 65 66  4  0
 66  1  4  0
 65  4  4  0
 63  6  4  0
 61  8  4  0
 59 10  4  0
 56 13  4  0
 56 17  4  0
 54 19  4  0
 52 21  4  0
 50 23  4  0
 46 25  4  0
 44 27  4  0
 42 29  4  0
 40 31  4  0
 38 33  4  0
  1 67  1  0
  2 68  1  0
  3 69  1  0
  5 70  1  0
  9 71  1  0
 11 72  1  0
 14 73  1  0
 15 74  1  0
 16 75  1  0
 18 76  1  0
 20 77  1  0
 22 78  1  0
 26 79  1  0
 28 80  1  0
 32 81  1  0
 34 82  1  0
 35 83  1  0
 36 84  1  0
 37 85  1  0
 39 86  1  0
 43 87  1  0
 45 88  1  0
 46 89  1  0
 47 90  1  0
 48 91  1  0
 49 92  1  0
 51 93  1  0
 53 94  1  0
 55 95  1  0
 57 96  1  0
 58 97  1  0
 60 98  1  0
 64 99  1  0
 66100  1  0
M  END
