
     RDKit          3D

102114  0  0  0  0  0  0  0  0999 V2000
    7.8810   -2.0663   -2.2371 C   0  0  0  0  0  0  0  0  0  0  0  0
    9.0574   -1.4643   -1.7341 C   0  0  0  0  0  0  0  0  0  0  0  0
    8.7605   -0.5990   -0.6833 C   0  0  0  0  0  0  0  0  0  0  0  0
    9.6320    0.1837    0.0396 C   0  0  0  0  0  0  0  0  0  0  0  0
   11.0728    0.4012    0.0798 C   0  0  0  0  0  0  0  0  0  0  0  0
   11.5911    1.6888    0.2817 C   0  0  0  0  0  0  0  0  0  0  0  0
   12.9707    1.9075    0.3167 C   0  0  0  0  0  0  0  0  0  0  0  0
   13.8497    0.8390    0.1556 C   0  0  0  0  0  0  0  0  0  0  0  0
   13.3504   -0.4474   -0.0355 C   0  0  0  0  0  0  0  0  0  0  0  0
   11.9699   -0.6650   -0.0711 C   0  0  0  0  0  0  0  0  0  0  0  0
    8.9060    0.9249    0.9443 O   0  0  0  0  0  0  0  0  0  0  0  0
    7.5756    0.5931    0.8244 C   0  0  0  0  0  0  0  0  0  0  0  0
    6.6817    1.2789    1.7498 C   0  0  0  0  0  0  0  0  0  0  0  0
    6.9056    2.6178    2.0973 C   0  0  0  0  0  0  0  0  0  0  0  0
    6.0369    3.2866    2.9617 C   0  0  0  0  0  0  0  0  0  0  0  0
    4.9292    2.6232    3.4890 C   0  0  0  0  0  0  0  0  0  0  0  0
    4.6829    1.2819    3.1669 C   0  0  0  0  0  0  0  0  0  0  0  0
    3.5097    0.5759    3.7103 C   0  0  0  0  0  0  0  0  0  0  0  0
    3.5388    0.1741    5.0581 C   0  0  0  0  0  0  0  0  0  0  0  0
    2.4730   -0.5197    5.6210 C   0  0  0  0  0  0  0  0  0  0  0  0
    1.3602   -0.8268    4.8433 C   0  0  0  0  0  0  0  0  0  0  0  0
    1.2915   -0.4407    3.4962 C   0  0  0  0  0  0  0  0  0  0  0  0
    0.1598   -0.7621    2.7258 C   0  0  0  0  0  0  0  0  0  0  0  0
    0.0560   -0.3896    1.3763 C   0  0  0  0  0  0  0  0  0  0  0  0
   -1.0719   -0.7157    0.6045 C   0  0  0  0  0  0  0  0  0  0  0  0
   -1.1714   -0.3355   -0.7450 C   0  0  0  0  0  0  0  0  0  0  0  0
   -2.3002   -0.6568   -1.5179 C   0  0  0  0  0  0  0  0  0  0  0  0
   -2.4322   -0.2682   -2.8736 C   0  0  0  0  0  0  0  0  0  0  0  0
   -3.5797   -0.5606   -3.6712 C   0  0  0  0  0  0  0  0  0  0  0  0
   -4.7593   -1.2596   -3.1304 C   0  0  0  0  0  0  0  0  0  0  0  0
   -5.0617   -2.5719   -3.5188 C   0  0  0  0  0  0  0  0  0  0  0  0
   -6.1761   -3.2279   -2.9963 C   0  0  0  0  0  0  0  0  0  0  0  0
   -6.9951   -2.5818   -2.0692 C   0  0  0  0  0  0  0  0  0  0  0  0
   -6.7151   -1.2729   -1.6552 C   0  0  0  0  0  0  0  0  0  0  0  0
   -7.5573   -0.6125   -0.6661 C   0  0  0  0  0  0  0  0  0  0  0  0
   -7.3688    0.2556    0.3859 C   0  0  0  0  0  0  0  0  0  0  0  0
   -6.1667    0.7653    0.8732 C   0  0  0  0  0  0  0  0  0  0  0  0
   -6.3922    1.6032    1.9894 C   0  0  0  0  0  0  0  0  0  0  0  0
   -7.6894    1.8764    2.5466 C   0  0  0  0  0  0  0  0  0  0  0  0
   -8.8984    1.3411    2.0460 C   0  0  0  0  0  0  0  0  0  0  0  0
   -8.6593    0.5280    0.9404 C   0  0  0  0  0  0  0  0  0  0  0  0
   -9.5756   -0.1850    0.2013 C   0  0  0  0  0  0  0  0  0  0  0  0
  -11.0227   -0.3557    0.1888 C   0  0  0  0  0  0  0  0  0  0  0  0
  -11.8807    0.7276    0.4209 C   0  0  0  0  0  0  0  0  0  0  0  0
  -13.2677    0.5552    0.4053 C   0  0  0  0  0  0  0  0  0  0  0  0
  -13.8126   -0.7022    0.1539 C   0  0  0  0  0  0  0  0  0  0  0  0
  -12.9726   -1.7867   -0.0872 C   0  0  0  0  0  0  0  0  0  0  0  0
  -11.5866   -1.6132   -0.0722 C   0  0  0  0  0  0  0  0  0  0  0  0
   -8.9001   -0.8953   -0.7645 O   0  0  0  0  0  0  0  0  0  0  0  0
   -5.6075   -0.6180   -2.2103 C   0  0  0  0  0  0  0  0  0  0  0  0
   -3.6075   -0.1509   -5.0169 C   0  0  0  0  0  0  0  0  0  0  0  0
   -2.5397    0.5416   -5.5773 C   0  0  0  0  0  0  0  0  0  0  0  0
   -1.4250    0.8398   -4.7995 C   0  0  0  0  0  0  0  0  0  0  0  0
   -1.3567    0.4459   -3.4548 C   0  0  0  0  0  0  0  0  0  0  0  0
   -0.2236    0.7608   -2.6848 C   0  0  0  0  0  0  0  0  0  0  0  0
   -0.1210    0.3849   -1.3364 C   0  0  0  0  0  0  0  0  0  0  0  0
    1.0067    0.7107   -0.5650 C   0  0  0  0  0  0  0  0  0  0  0  0
    1.1063    0.3306    0.7840 C   0  0  0  0  0  0  0  0  0  0  0  0
    2.2350    0.6547    1.5553 C   0  0  0  0  0  0  0  0  0  0  0  0
    2.3652    0.2739    2.9129 C   0  0  0  0  0  0  0  0  0  0  0  0
    5.5778    0.6193    2.3078 C   0  0  0  0  0  0  0  0  0  0  0  0
    7.4464   -0.3380   -0.1817 C   0  0  0  0  0  0  0  0  0  0  0  0
    6.2760   -0.9130   -0.6733 C   0  0  0  0  0  0  0  0  0  0  0  0
    6.5600   -1.8047   -1.7330 C   0  0  0  0  0  0  0  0  0  0  0  0
    7.9777   -2.7688   -3.0663 H   0  0  0  0  0  0  0  0  0  0  0  0
   10.0390   -1.6572   -2.1423 H   0  0  0  0  0  0  0  0  0  0  0  0
   10.9176    2.5338    0.4093 H   0  0  0  0  0  0  0  0  0  0  0  0
   13.3565    2.9117    0.4716 H   0  0  0  0  0  0  0  0  0  0  0  0
   14.9230    1.0080    0.1854 H   0  0  0  0  0  0  0  0  0  0  0  0
   14.0344   -1.2844   -0.1501 H   0  0  0  0  0  0  0  0  0  0  0  0
   11.6045   -1.6809   -0.1981 H   0  0  0  0  0  0  0  0  0  0  0  0
    7.7603    3.1523    1.6871 H   0  0  0  0  0  0  0  0  0  0  0  0
    6.2214    4.3265    3.2186 H   0  0  0  0  0  0  0  0  0  0  0  0
    4.2527    3.1588    4.1522 H   0  0  0  0  0  0  0  0  0  0  0  0
    4.4092    0.3966    5.6733 H   0  0  0  0  0  0  0  0  0  0  0  0
    2.5123   -0.8268    6.6626 H   0  0  0  0  0  0  0  0  0  0  0  0
    0.5391   -1.3747    5.3012 H   0  0  0  0  0  0  0  0  0  0  0  0
   -0.6580   -1.3151    3.1858 H   0  0  0  0  0  0  0  0  0  0  0  0
   -1.8887   -1.2719    1.0623 H   0  0  0  0  0  0  0  0  0  0  0  0
   -3.0969   -1.2301   -1.0466 H   0  0  0  0  0  0  0  0  0  0  0  0
   -4.4233   -3.0916   -4.2304 H   0  0  0  0  0  0  0  0  0  0  0  0
   -6.4045   -4.2446   -3.3053 H   0  0  0  0  0  0  0  0  0  0  0  0
   -7.8548   -3.1107   -1.6627 H   0  0  0  0  0  0  0  0  0  0  0  0
   -5.1796    0.5587    0.4853 H   0  0  0  0  0  0  0  0  0  0  0  0
   -5.5271    2.0674    2.4656 H   0  0  0  0  0  0  0  0  0  0  0  0
   -7.7387    2.5327    3.4166 H   0  0  0  0  0  0  0  0  0  0  0  0
   -9.8613    1.5403    2.4936 H   0  0  0  0  0  0  0  0  0  0  0  0
  -11.4790    1.7227    0.5949 H   0  0  0  0  0  0  0  0  0  0  0  0
  -13.9214    1.4052    0.5819 H   0  0  0  0  0  0  0  0  0  0  0  0
  -14.8910   -0.8357    0.1391 H   0  0  0  0  0  0  0  0  0  0  0  0
  -13.3932   -2.7681   -0.2899 H   0  0  0  0  0  0  0  0  0  0  0  0
  -10.9440   -2.4702   -0.2634 H   0  0  0  0  0  0  0  0  0  0  0  0
   -5.3931    0.4129   -1.9339 H   0  0  0  0  0  0  0  0  0  0  0  0
   -4.4806   -0.3634   -5.6319 H   0  0  0  0  0  0  0  0  0  0  0  0
   -2.5802    0.8560   -6.6168 H   0  0  0  0  0  0  0  0  0  0  0  0
   -0.6033    1.3887   -5.2550 H   0  0  0  0  0  0  0  0  0  0  0  0
    0.5960    1.3138   -3.1422 H   0  0  0  0  0  0  0  0  0  0  0  0
    1.8213    1.2703   -1.0219 H   0  0  0  0  0  0  0  0  0  0  0  0
    3.0324    1.2249    1.0818 H   0  0  0  0  0  0  0  0  0  0  0  0
    5.4039   -0.4316    2.0834 H   0  0  0  0  0  0  0  0  0  0  0  0
    5.2721   -0.7168   -0.3254 H   0  0  0  0  0  0  0  0  0  0  0  0
    5.7238   -2.3231   -2.2048 H   0  0  0  0  0  0  0  0  0  0  0  0
  1  2  4  0
  2  3  4  0
  3  4  4  0
  4  5  1  0
  5  6  4  0
  6  7  4  0
  7  8  4  0
  8  9  4  0
  9 10  4  0
  4 11  4  0
 11 12  4  0
 12 13  1  0
 13 14  4  0
 14 15  4  0
 15 16  4  0
 16 17  4  0
 17 18  1  0
 18 19  4  0
 19 20  4  0
 20 21  4  0
 21 22  4  0
 22 23  4  0
 23 24  4  0
 24 25  4  0
 25 26  4  0
 26 27  4  0
 27 28  4  0
 28 29  4  0
 29 30  1  0
 30 31  4  0
 31 32  4  0
 32 33  4  0
 33 34  4  0
 34 35  1  0
 35 36  4  0
 36 37  4  0
 37 38  4  0
 38 39  4  0
 39 40  4  0
 40 41  4  0
 41 42  4  0
 42 43  1  0
 43 44  4  0
 44 45  4  0
 45 46  4  0
 46 47  4  0
 47 48  4  0
 42 49  4  0
 34 50  4  0
 29 51  4  0
 51 52  4  0
 52 53  4  0
 53 54  4  0
 54 55  4  0
 55 56  4  0
 56 57  4  0
 57 58  4  0
 58 59  4  0
 59 60  4  0
 17 61  4  0
 12 62  4  0
 62 63  4  0
 63 64  4  0
 64  1  4  0
 62  3  4  0
 10  5  4  0
 61 13  4  0
 60 18  4  0
 60 22  4  0
 58 24  4  0
 56 26  4  0
 54 28  4  0
 50 30  4  0
 49 35  4  0
 41 36  4  0
 48 43  4  0
  1 65  1  0
  2 66  1  0
  6 67  1  0
  7 68  1  0
  8 69  1  0
  9 70  1  0
 10 71  1  0
 14 72  1  0
 15 73  1  0
 16 74  1  0
 19 75  1  0
 20 76  1  0
 21 77  1  0
 23 78  1  0
 25 79  1  0
 27 80  1  0
 31 81  1  0
 32 82  1  0
 33 83  1  0
 37 84  1  0
 38 85  1  0
 39 86  1  0
 40 87  1  0
 44 88  1  0
 45 89  1  0
 46 90  1  0
 47 91  1  0
 48 92  1  0
 50 93  1  0
 51 94  1  0
 52 95  1  0
 53 96  1  0
 55 97  1  0
 57 98  1  0
 59 99  1  0
 61100  1  0
 63101  1  0
 64102  1  0
M  END
