
     RDKit          3D

102114  0  0  0  0  0  0  0  0999 V2000
   -5.9333   -3.7592    1.4828 C   0  0  0  0  0  0  0  0  0  0  0  0
   -7.1148   -3.3273    0.8439 C   0  0  0  0  0  0  0  0  0  0  0  0
   -7.2475   -1.9418    0.9142 C   0  0  0  0  0  0  0  0  0  0  0  0
   -8.2799   -1.1788    0.4172 C   0  0  0  0  0  0  0  0  0  0  0  0
   -9.5435   -1.4227   -0.2677 C   0  0  0  0  0  0  0  0  0  0  0  0
   -9.9721   -0.5651   -1.2916 C   0  0  0  0  0  0  0  0  0  0  0  0
  -11.1796   -0.7922   -1.9572 C   0  0  0  0  0  0  0  0  0  0  0  0
  -11.9771   -1.8778   -1.6026 C   0  0  0  0  0  0  0  0  0  0  0  0
  -11.5708   -2.7321   -0.5799 C   0  0  0  0  0  0  0  0  0  0  0  0
  -10.3622   -2.5044    0.0848 C   0  0  0  0  0  0  0  0  0  0  0  0
   -8.0059    0.1428    0.6731 O   0  0  0  0  0  0  0  0  0  0  0  0
   -6.8054    0.2253    1.3355 C   0  0  0  0  0  0  0  0  0  0  0  0
   -6.3926    1.5850    1.6383 C   0  0  0  0  0  0  0  0  0  0  0  0
   -5.2235    2.1213    1.0859 C   0  0  0  0  0  0  0  0  0  0  0  0
   -4.8261    3.4241    1.3950 C   0  0  0  0  0  0  0  0  0  0  0  0
   -5.6030    4.2066    2.2473 C   0  0  0  0  0  0  0  0  0  0  0  0
   -6.7797    3.6896    2.7870 C   0  0  0  0  0  0  0  0  0  0  0  0
   -7.1746    2.3853    2.4812 C   0  0  0  0  0  0  0  0  0  0  0  0
   -6.3049   -1.0456    1.5262 C   0  0  0  0  0  0  0  0  0  0  0  0
   -5.1278   -1.4619    2.1723 C   0  0  0  0  0  0  0  0  0  0  0  0
   -4.1693   -0.5922    2.8482 C   0  0  0  0  0  0  0  0  0  0  0  0
   -4.5077   -0.0900    4.1181 C   0  0  0  0  0  0  0  0  0  0  0  0
   -3.6362    0.7363    4.8186 C   0  0  0  0  0  0  0  0  0  0  0  0
   -2.4055    1.0703    4.2630 C   0  0  0  0  0  0  0  0  0  0  0  0
   -2.0290    0.5868    3.0013 C   0  0  0  0  0  0  0  0  0  0  0  0
   -0.7846    0.9426    2.4539 C   0  0  0  0  0  0  0  0  0  0  0  0
   -0.3788    0.4897    1.1891 C   0  0  0  0  0  0  0  0  0  0  0  0
    0.8643    0.8495    0.6415 C   0  0  0  0  0  0  0  0  0  0  0  0
    1.2648    0.3975   -0.6273 C   0  0  0  0  0  0  0  0  0  0  0  0
    2.5085    0.7536   -1.1764 C   0  0  0  0  0  0  0  0  0  0  0  0
    2.9347    0.3035   -2.4496 C   0  0  0  0  0  0  0  0  0  0  0  0
    4.2004    0.6323   -3.0180 C   0  0  0  0  0  0  0  0  0  0  0  0
    5.1660    1.4884   -2.3354 C   0  0  0  0  0  0  0  0  0  0  0  0
    5.0647    2.9065   -2.2959 C   0  0  0  0  0  0  0  0  0  0  0  0
    6.0100    3.7727   -1.6500 C   0  0  0  0  0  0  0  0  0  0  0  0
    7.1687    3.3202   -0.9837 C   0  0  0  0  0  0  0  0  0  0  0  0
    7.2707    1.9315   -1.0389 C   0  0  0  0  0  0  0  0  0  0  0  0
    8.2734    1.1487   -0.5125 C   0  0  0  0  0  0  0  0  0  0  0  0
    9.5272    1.3658    0.1985 C   0  0  0  0  0  0  0  0  0  0  0  0
    9.9109    0.5033    1.2364 C   0  0  0  0  0  0  0  0  0  0  0  0
   11.1110    0.7002    1.9243 C   0  0  0  0  0  0  0  0  0  0  0  0
   11.9457    1.7601    1.5781 C   0  0  0  0  0  0  0  0  0  0  0  0
   11.5834    2.6195    0.5431 C   0  0  0  0  0  0  0  0  0  0  0  0
   10.3820    2.4222   -0.1438 C   0  0  0  0  0  0  0  0  0  0  0  0
    7.9741   -0.1679   -0.7640 O   0  0  0  0  0  0  0  0  0  0  0  0
    6.7877   -0.2282   -1.4523 C   0  0  0  0  0  0  0  0  0  0  0  0
    6.3537   -1.5808   -1.7543 C   0  0  0  0  0  0  0  0  0  0  0  0
    7.1278   -2.3958   -2.5902 C   0  0  0  0  0  0  0  0  0  0  0  0
    6.7172   -3.6965   -2.8893 C   0  0  0  0  0  0  0  0  0  0  0  0
    5.5320   -4.1944   -2.3503 C   0  0  0  0  0  0  0  0  0  0  0  0
    4.7620   -3.3964   -1.5061 C   0  0  0  0  0  0  0  0  0  0  0  0
    5.1755   -2.0973   -1.2034 C   0  0  0  0  0  0  0  0  0  0  0  0
    6.3203    1.0518   -1.6626 C   0  0  0  0  0  0  0  0  0  0  0  0
    4.5378    0.1304   -4.2883 C   0  0  0  0  0  0  0  0  0  0  0  0
    3.6615   -0.6881   -4.9923 C   0  0  0  0  0  0  0  0  0  0  0  0
    2.4285   -1.0164   -4.4384 C   0  0  0  0  0  0  0  0  0  0  0  0
    2.0538   -0.5331   -3.1761 C   0  0  0  0  0  0  0  0  0  0  0  0
    0.8086   -0.8854   -2.6291 C   0  0  0  0  0  0  0  0  0  0  0  0
    0.4040   -0.4326   -1.3640 C   0  0  0  0  0  0  0  0  0  0  0  0
   -0.8388   -0.7925   -0.8164 C   0  0  0  0  0  0  0  0  0  0  0  0
   -1.2389   -0.3414    0.4526 C   0  0  0  0  0  0  0  0  0  0  0  0
   -2.4814   -0.7009    1.0021 C   0  0  0  0  0  0  0  0  0  0  0  0
   -2.9072   -0.2545    2.2766 C   0  0  0  0  0  0  0  0  0  0  0  0
   -4.9958   -2.8773    2.1181 C   0  0  0  0  0  0  0  0  0  0  0  0
   -5.7171   -4.8283    1.5004 H   0  0  0  0  0  0  0  0  0  0  0  0
   -7.8046   -4.0072    0.3645 H   0  0  0  0  0  0  0  0  0  0  0  0
   -9.3608    0.2884   -1.5791 H   0  0  0  0  0  0  0  0  0  0  0  0
  -11.4958   -0.1189   -2.7497 H   0  0  0  0  0  0  0  0  0  0  0  0
  -12.9177   -2.0533   -2.1181 H   0  0  0  0  0  0  0  0  0  0  0  0
  -12.1975   -3.5726   -0.2930 H   0  0  0  0  0  0  0  0  0  0  0  0
  -10.0789   -3.1706    0.8958 H   0  0  0  0  0  0  0  0  0  0  0  0
   -4.6112    1.5271    0.4121 H   0  0  0  0  0  0  0  0  0  0  0  0
   -3.9099    3.8243    0.9693 H   0  0  0  0  0  0  0  0  0  0  0  0
   -5.2938    5.2205    2.4866 H   0  0  0  0  0  0  0  0  0  0  0  0
   -7.3914    4.3004    3.4453 H   0  0  0  0  0  0  0  0  0  0  0  0
   -8.0952    1.9910    2.9054 H   0  0  0  0  0  0  0  0  0  0  0  0
   -5.4688   -0.3410    4.5637 H   0  0  0  0  0  0  0  0  0  0  0  0
   -3.9186    1.1229    5.7941 H   0  0  0  0  0  0  0  0  0  0  0  0
   -1.7399    1.7216    4.8256 H   0  0  0  0  0  0  0  0  0  0  0  0
   -0.1183    1.5893    3.0227 H   0  0  0  0  0  0  0  0  0  0  0  0
    1.5321    1.4924    1.2125 H   0  0  0  0  0  0  0  0  0  0  0  0
    3.1672    1.3900   -0.5875 H   0  0  0  0  0  0  0  0  0  0  0  0
    4.2103    3.3749   -2.7892 H   0  0  0  0  0  0  0  0  0  0  0  0
    5.8184    4.8462   -1.6809 H   0  0  0  0  0  0  0  0  0  0  0  0
    7.8643    3.9885   -0.4964 H   0  0  0  0  0  0  0  0  0  0  0  0
    9.2701   -0.3313    1.5155 H   0  0  0  0  0  0  0  0  0  0  0  0
   11.3930    0.0233    2.7265 H   0  0  0  0  0  0  0  0  0  0  0  0
   12.8816    1.9112    2.1099 H   0  0  0  0  0  0  0  0  0  0  0  0
   12.2394    3.4397    0.2634 H   0  0  0  0  0  0  0  0  0  0  0  0
   10.1331    3.0905   -0.9642 H   0  0  0  0  0  0  0  0  0  0  0  0
    8.0556   -2.0165   -3.0123 H   0  0  0  0  0  0  0  0  0  0  0  0
    7.3240   -4.3193   -3.5407 H   0  0  0  0  0  0  0  0  0  0  0  0
    5.2114   -5.2060   -2.5839 H   0  0  0  0  0  0  0  0  0  0  0  0
    3.8389   -3.7814   -1.0811 H   0  0  0  0  0  0  0  0  0  0  0  0
    4.5697   -1.4910   -0.5345 H   0  0  0  0  0  0  0  0  0  0  0  0
    5.5019    0.3748   -4.7310 H   0  0  0  0  0  0  0  0  0  0  0  0
    3.9425   -1.0744   -5.9683 H   0  0  0  0  0  0  0  0  0  0  0  0
    1.7599   -1.6630   -5.0031 H   0  0  0  0  0  0  0  0  0  0  0  0
    0.1403   -1.5301   -3.1979 H   0  0  0  0  0  0  0  0  0  0  0  0
   -1.5059   -1.4358   -1.3875 H   0  0  0  0  0  0  0  0  0  0  0  0
   -3.1392   -1.3381    0.4129 H   0  0  0  0  0  0  0  0  0  0  0  0
   -4.1224   -3.3308    2.5918 H   0  0  0  0  0  0  0  0  0  0  0  0
  1  2  4  0
  2  3  4  0
  3  4  4  0
  4  5  1  0
  5  6  4  0
  6  7  4  0
  7  8  4  0
  8  9  4  0
  9 10  4  0
  4 11  4  0
 11 12  4  0
 12 13  1  0
 13 14  4  0
 14 15  4  0
 15 16  4  0
 16 17  4  0
 17 18  4  0
 12 19  4  0
 19 20  4  0
 20 21  1  0
 21 22  4  0
 22 23  4  0
 23 24  4  0
 24 25  4  0
 25 26  4  0
 26 27  4  0
 27 28  4  0
 28 29  4  0
 29 30  4  0
 30 31  4  0
 31 32  4  0
 32 33  1  0
 33 34  4  0
 34 35  4  0
 35 36  4  0
 36 37  4  0
 37 38  4  0
 38 39  1  0
 39 40  4  0
 40 41  4  0
 41 42  4  0
 42 43  4  0
 43 44  4  0
 38 45  4  0
 45 46  4  0
 46 47  1  0
 47 48  4  0
 48 49  4  0
 49 50  4  0
 50 51  4  0
 51 52  4  0
 46 53  4  0
 32 54  4  0
 54 55  4  0
 55 56  4  0
 56 57  4  0
 57 58  4  0
 58 59  4  0
 59 60  4  0
 60 61  4  0
 61 62  4  0
 62 63  4  0
 20 64  4  0
 64  1  4  0
 19  3  4  0
 63 21  4  0
 10  5  4  0
 18 13  4  0
 63 25  4  0
 61 27  4  0
 59 29  4  0
 57 31  4  0
 53 33  4  0
 53 37  4  0
 44 39  4  0
 52 47  4  0
  1 65  1  0
  2 66  1  0
  6 67  1  0
  7 68  1  0
  8 69  1  0
  9 70  1  0
 10 71  1  0
 14 72  1  0
 15 73  1  0
 16 74  1  0
 17 75  1  0
 18 76  1  0
 22 77  1  0
 23 78  1  0
 24 79  1  0
 26 80  1  0
 28 81  1  0
 30 82  1  0
 34 83  1  0
 35 84  1  0
 36 85  1  0
 40 86  1  0
 41 87  1  0
 42 88  1  0
 43 89  1  0
 44 90  1  0
 48 91  1  0
 49 92  1  0
 50 93  1  0
 51 94  1  0
 52 95  1  0
 54 96  1  0
 55 97  1  0
 56 98  1  0
 58 99  1  0
 60100  1  0
 62101  1  0
 64102  1  0
M  END
