
     RDKit          3D

 96110  0  0  0  0  0  0  0  0999 V2000
    7.1906   -5.2296    4.1274 C   0  0  0  0  0  0  0  0  0  0  0  0
    6.0674   -5.7867    3.5305 C   0  0  0  0  0  0  0  0  0  0  0  0
    5.4444   -5.1167    2.4768 C   0  0  0  0  0  0  0  0  0  0  0  0
    5.9251   -3.8995    2.0096 C   0  0  0  0  0  0  0  0  0  0  0  0
    5.2988   -3.2808    0.9921 N   0  0  0  0  0  0  0  0  0  0  0  0
    5.8015   -2.1057    0.5745 C   0  0  0  0  0  0  0  0  0  0  0  0
    5.1927   -1.4275   -0.4688 C   0  0  0  0  0  0  0  0  0  0  0  0
    5.6765   -0.2153   -0.9335 C   0  0  0  0  0  0  0  0  0  0  0  0
    5.0529    0.4066   -1.9459 N   0  0  0  0  0  0  0  0  0  0  0  0
    5.5430    1.5911   -2.3802 C   0  0  0  0  0  0  0  0  0  0  0  0
    6.6928    2.1388   -1.7671 C   0  0  0  0  0  0  0  0  0  0  0  0
    7.3190    1.5163   -0.7524 N   0  0  0  0  0  0  0  0  0  0  0  0
    6.8156    0.3440   -0.3323 C   0  0  0  0  0  0  0  0  0  0  0  0
    7.4240   -0.3313    0.7126 C   0  0  0  0  0  0  0  0  0  0  0  0
    6.9417   -1.5428    1.1794 C   0  0  0  0  0  0  0  0  0  0  0  0
    7.5681   -2.1569    2.1971 N   0  0  0  0  0  0  0  0  0  0  0  0
    7.0671   -3.3332    2.6164 C   0  0  0  0  0  0  0  0  0  0  0  0
    7.6805   -4.0077    3.6651 C   0  0  0  0  0  0  0  0  0  0  0  0
    7.1981    3.3533   -2.2098 C   0  0  0  0  0  0  0  0  0  0  0  0
    6.5954    4.0565   -3.2482 C   0  0  0  0  0  0  0  0  0  0  0  0
    5.4626    3.5324   -3.8550 C   0  0  0  0  0  0  0  0  0  0  0  0
    4.9270    2.3033   -3.4281 C   0  0  0  0  0  0  0  0  0  0  0  0
    3.7127    1.7874   -4.0961 C   0  0  0  0  0  0  0  0  0  0  0  0
    3.8585    1.1571   -5.3464 C   0  0  0  0  0  0  0  0  0  0  0  0
    2.7552    0.6569   -6.0293 C   0  0  0  0  0  0  0  0  0  0  0  0
    1.4854    0.7794   -5.4739 C   0  0  0  0  0  0  0  0  0  0  0  0
    1.2994    1.3995   -4.2297 C   0  0  0  0  0  0  0  0  0  0  0  0
    0.0090    1.5071   -3.6850 C   0  0  0  0  0  0  0  0  0  0  0  0
   -0.2171    2.1178   -2.4426 C   0  0  0  0  0  0  0  0  0  0  0  0
   -1.5074    2.2179   -1.8979 C   0  0  0  0  0  0  0  0  0  0  0  0
   -1.7305    2.8252   -0.6513 C   0  0  0  0  0  0  0  0  0  0  0  0
   -3.0213    2.9225   -0.1051 C   0  0  0  0  0  0  0  0  0  0  0  0
   -3.2723    3.5134    1.1565 C   0  0  0  0  0  0  0  0  0  0  0  0
   -4.5719    3.6146    1.7382 C   0  0  0  0  0  0  0  0  0  0  0  0
   -5.7907    3.1191    1.0586 C   0  0  0  0  0  0  0  0  0  0  0  0
   -6.6696    4.0581    0.4859 C   0  0  0  0  0  0  0  0  0  0  0  0
   -7.8217    3.6418   -0.1661 C   0  0  0  0  0  0  0  0  0  0  0  0
   -8.1007    2.2816   -0.2517 C   0  0  0  0  0  0  0  0  0  0  0  0
   -7.2538    1.3312    0.3006 C   0  0  0  0  0  0  0  0  0  0  0  0
   -7.5782    0.0321    0.1684 N   0  0  0  0  0  0  0  0  0  0  0  0
   -6.7446   -0.8789    0.6975 C   0  0  0  0  0  0  0  0  0  0  0  0
   -7.0315   -2.2293    0.5767 C   0  0  0  0  0  0  0  0  0  0  0  0
   -6.1969   -3.2052    1.0975 C   0  0  0  0  0  0  0  0  0  0  0  0
   -6.5170   -4.5024    0.9479 N   0  0  0  0  0  0  0  0  0  0  0  0
   -5.6771   -5.4154    1.4705 C   0  0  0  0  0  0  0  0  0  0  0  0
   -5.9636   -6.7696    1.3430 C   0  0  0  0  0  0  0  0  0  0  0  0
   -5.1162   -7.7444    1.8717 C   0  0  0  0  0  0  0  0  0  0  0  0
   -3.9617   -7.3582    2.5397 C   0  0  0  0  0  0  0  0  0  0  0  0
   -3.6656   -6.0010    2.6727 C   0  0  0  0  0  0  0  0  0  0  0  0
   -4.5032   -5.0231    2.1494 C   0  0  0  0  0  0  0  0  0  0  0  0
   -4.1851   -3.7237    2.2959 N   0  0  0  0  0  0  0  0  0  0  0  0
   -5.0256   -2.8133    1.7733 C   0  0  0  0  0  0  0  0  0  0  0  0
   -4.7417   -1.4624    1.8954 C   0  0  0  0  0  0  0  0  0  0  0  0
   -5.5762   -0.4882    1.3709 C   0  0  0  0  0  0  0  0  0  0  0  0
   -5.2566    0.8087    1.5071 N   0  0  0  0  0  0  0  0  0  0  0  0
   -6.0800    1.7418    0.9737 C   0  0  0  0  0  0  0  0  0  0  0  0
   -4.7167    4.2260    2.9988 C   0  0  0  0  0  0  0  0  0  0  0  0
   -3.6162    4.7318    3.6825 C   0  0  0  0  0  0  0  0  0  0  0  0
   -2.3486    4.6341    3.1177 C   0  0  0  0  0  0  0  0  0  0  0  0
   -2.1610    4.0307    1.8655 C   0  0  0  0  0  0  0  0  0  0  0  0
   -0.8704    3.9405    1.3158 C   0  0  0  0  0  0  0  0  0  0  0  0
   -0.6406    3.3422    0.0675 C   0  0  0  0  0  0  0  0  0  0  0  0
    0.6505    3.2445   -0.4786 C   0  0  0  0  0  0  0  0  0  0  0  0
    0.8734    2.6376   -1.7264 C   0  0  0  0  0  0  0  0  0  0  0  0
    2.1635    2.5333   -2.2737 C   0  0  0  0  0  0  0  0  0  0  0  0
    2.4125    1.9147   -3.5228 C   0  0  0  0  0  0  0  0  0  0  0  0
    7.6869   -5.7392    4.9491 H   0  0  0  0  0  0  0  0  0  0  0  0
    5.6737   -6.7378    3.8792 H   0  0  0  0  0  0  0  0  0  0  0  0
    4.5648   -5.5520    2.0086 H   0  0  0  0  0  0  0  0  0  0  0  0
    4.3095   -1.8563   -0.9362 H   0  0  0  0  0  0  0  0  0  0  0  0
    8.3050    0.1016    1.1794 H   0  0  0  0  0  0  0  0  0  0  0  0
    8.5599   -3.5695    4.1311 H   0  0  0  0  0  0  0  0  0  0  0  0
    8.0844    3.7617   -1.7288 H   0  0  0  0  0  0  0  0  0  0  0  0
    7.0059    5.0077   -3.5770 H   0  0  0  0  0  0  0  0  0  0  0  0
    4.9834    4.0837   -4.6625 H   0  0  0  0  0  0  0  0  0  0  0  0
    4.8469    1.0461   -5.7884 H   0  0  0  0  0  0  0  0  0  0  0  0
    2.8854    0.1671   -6.9904 H   0  0  0  0  0  0  0  0  0  0  0  0
    0.6340    0.3803   -6.0219 H   0  0  0  0  0  0  0  0  0  0  0  0
   -0.8383    1.1029   -4.2367 H   0  0  0  0  0  0  0  0  0  0  0  0
   -2.3521    1.8120   -2.4514 H   0  0  0  0  0  0  0  0  0  0  0  0
   -3.8495    2.5124   -0.6788 H   0  0  0  0  0  0  0  0  0  0  0  0
   -6.4439    5.1219    0.5451 H   0  0  0  0  0  0  0  0  0  0  0  0
   -8.4968    4.3692   -0.6096 H   0  0  0  0  0  0  0  0  0  0  0  0
   -9.0001    1.9502   -0.7662 H   0  0  0  0  0  0  0  0  0  0  0  0
   -7.9361   -2.5322    0.0554 H   0  0  0  0  0  0  0  0  0  0  0  0
   -6.8682   -7.0698    0.8195 H   0  0  0  0  0  0  0  0  0  0  0  0
   -5.3605   -8.7979    1.7599 H   0  0  0  0  0  0  0  0  0  0  0  0
   -3.2918   -8.1058    2.9572 H   0  0  0  0  0  0  0  0  0  0  0  0
   -2.7625   -5.6958    3.1959 H   0  0  0  0  0  0  0  0  0  0  0  0
   -3.8359   -1.1564    2.4135 H   0  0  0  0  0  0  0  0  0  0  0  0
   -5.7010    4.3022    3.4573 H   0  0  0  0  0  0  0  0  0  0  0  0
   -3.7451    5.1965    4.6563 H   0  0  0  0  0  0  0  0  0  0  0  0
   -1.4994    5.0330    3.6690 H   0  0  0  0  0  0  0  0  0  0  0  0
   -0.0250    4.3420    1.8725 H   0  0  0  0  0  0  0  0  0  0  0  0
    1.4974    3.6418    0.0785 H   0  0  0  0  0  0  0  0  0  0  0  0
    2.9954    2.9382   -1.7015 H   0  0  0  0  0  0  0  0  0  0  0  0
  1  2  4  0
  2  3  4  0
  3  4  4  0
  4  5  4  0
  5  6  4  0
  6  7  4  0
  7  8  4  0
  8  9  4  0
  9 10  4  0
 10 11  4  0
 11 12  4  0
 12 13  4  0
 13 14  4  0
 14 15  4  0
 15 16  4  0
 16 17  4  0
 17 18  4  0
 11 19  4  0
 19 20  4  0
 20 21  4  0
 21 22  4  0
 22 23  1  0
 23 24  4  0
 24 25  4  0
 25 26  4  0
 26 27  4  0
 27 28  4  0
 28 29  4  0
 29 30  4  0
 30 31  4  0
 31 32  4  0
 32 33  4  0
 33 34  4  0
 34 35  1  0
 35 36  4  0
 36 37  4  0
 37 38  4  0
 38 39  4  0
 39 40  4  0
 40 41  4  0
 41 42  4  0
 42 43  4  0
 43 44  4  0
 44 45  4  0
 45 46  4  0
 46 47  4  0
 47 48  4  0
 48 49  4  0
 49 50  4  0
 50 51  4  0
 51 52  4  0
 52 53  4  0
 53 54  4  0
 54 55  4  0
 55 56  4  0
 34 57  4  0
 57 58  4  0
 58 59  4  0
 59 60  4  0
 60 61  4  0
 61 62  4  0
 62 63  4  0
 63 64  4  0
 64 65  4  0
 65 66  4  0
 18  1  4  0
 66 23  4  0
 17  4  4  0
 66 27  4  0
 15  6  4  0
 64 29  4  0
 13  8  4  0
 62 31  4  0
 22 10  4  0
 60 33  4  0
 56 35  4  0
 56 39  4  0
 54 41  4  0
 52 43  4  0
 50 45  4  0
  1 67  1  0
  2 68  1  0
  3 69  1  0
  7 70  1  0
 14 71  1  0
 18 72  1  0
 19 73  1  0
 20 74  1  0
 21 75  1  0
 24 76  1  0
 25 77  1  0
 26 78  1  0
 28 79  1  0
 30 80  1  0
 32 81  1  0
 36 82  1  0
 37 83  1  0
 38 84  1  0
 42 85  1  0
 46 86  1  0
 47 87  1  0
 48 88  1  0
 49 89  1  0
 53 90  1  0
 57 91  1  0
 58 92  1  0
 59 93  1  0
 61 94  1  0
 63 95  1  0
 65 96  1  0
M  END
