
     RDKit          3D

 96110  0  0  0  0  0  0  0  0999 V2000
  -11.5366   -3.6685    0.1616 C   0  0  0  0  0  0  0  0  0  0  0  0
  -11.2094   -2.4830   -0.4983 C   0  0  0  0  0  0  0  0  0  0  0  0
  -10.1068   -1.7254   -0.1211 C   0  0  0  0  0  0  0  0  0  0  0  0
   -9.8216   -0.5869   -0.7802 N   0  0  0  0  0  0  0  0  0  0  0  0
   -8.7459    0.1113   -0.3786 C   0  0  0  0  0  0  0  0  0  0  0  0
   -8.4135    1.2906   -1.0260 C   0  0  0  0  0  0  0  0  0  0  0  0
   -7.3139    2.0463   -0.6525 C   0  0  0  0  0  0  0  0  0  0  0  0
   -7.0260    3.1827   -1.3098 N   0  0  0  0  0  0  0  0  0  0  0  0
   -5.9414    3.8761   -0.9167 C   0  0  0  0  0  0  0  0  0  0  0  0
   -5.6234    5.0475   -1.5897 C   0  0  0  0  0  0  0  0  0  0  0  0
   -4.5103    5.8070   -1.2418 C   0  0  0  0  0  0  0  0  0  0  0  0
   -3.6980    5.3836   -0.1990 C   0  0  0  0  0  0  0  0  0  0  0  0
   -3.9945    4.2008    0.5030 C   0  0  0  0  0  0  0  0  0  0  0  0
   -3.1024    3.7841    1.6071 C   0  0  0  0  0  0  0  0  0  0  0  0
   -3.2243    4.4468    2.8435 C   0  0  0  0  0  0  0  0  0  0  0  0
   -2.4171    4.1049    3.9226 C   0  0  0  0  0  0  0  0  0  0  0  0
   -1.4718    3.0939    3.7836 C   0  0  0  0  0  0  0  0  0  0  0  0
   -1.3174    2.4114    2.5679 C   0  0  0  0  0  0  0  0  0  0  0  0
   -0.3548    1.3941    2.4510 C   0  0  0  0  0  0  0  0  0  0  0  0
   -0.1702    0.6869    1.2532 C   0  0  0  0  0  0  0  0  0  0  0  0
    0.7919   -0.3310    1.1393 C   0  0  0  0  0  0  0  0  0  0  0  0
    0.9708   -1.0392   -0.0611 C   0  0  0  0  0  0  0  0  0  0  0  0
    1.9328   -2.0572   -0.1780 C   0  0  0  0  0  0  0  0  0  0  0  0
    2.1353   -2.7794   -1.3791 C   0  0  0  0  0  0  0  0  0  0  0  0
    3.1123   -3.8091   -1.5261 C   0  0  0  0  0  0  0  0  0  0  0  0
    4.0182   -4.2030   -0.4257 C   0  0  0  0  0  0  0  0  0  0  0  0
    5.1467   -3.4256   -0.1024 C   0  0  0  0  0  0  0  0  0  0  0  0
    5.4432   -2.2995   -0.7897 N   0  0  0  0  0  0  0  0  0  0  0  0
    6.5174   -1.5870   -0.4230 C   0  0  0  0  0  0  0  0  0  0  0  0
    6.8314   -0.4255   -1.1076 C   0  0  0  0  0  0  0  0  0  0  0  0
    7.9265    0.3482   -0.7649 C   0  0  0  0  0  0  0  0  0  0  0  0
    8.1940    1.4675   -1.4594 N   0  0  0  0  0  0  0  0  0  0  0  0
    9.2685    2.1865   -1.0881 C   0  0  0  0  0  0  0  0  0  0  0  0
    9.5896    3.3517   -1.7746 C   0  0  0  0  0  0  0  0  0  0  0  0
   10.6957    4.1238   -1.4172 C   0  0  0  0  0  0  0  0  0  0  0  0
   11.4947    3.7234   -0.3545 C   0  0  0  0  0  0  0  0  0  0  0  0
   11.1807    2.5548    0.3406 C   0  0  0  0  0  0  0  0  0  0  0  0
   10.0817    1.7793   -0.0080 C   0  0  0  0  0  0  0  0  0  0  0  0
    9.8117    0.6583    0.6853 N   0  0  0  0  0  0  0  0  0  0  0  0
    8.7397   -0.0591    0.3105 C   0  0  0  0  0  0  0  0  0  0  0  0
    8.4241   -1.2232    0.9920 C   0  0  0  0  0  0  0  0  0  0  0  0
    7.3286   -1.9974    0.6473 C   0  0  0  0  0  0  0  0  0  0  0  0
    7.0559   -3.1188    1.3357 N   0  0  0  0  0  0  0  0  0  0  0  0
    5.9747   -3.8309    0.9687 C   0  0  0  0  0  0  0  0  0  0  0  0
    5.6709   -4.9882    1.6718 C   0  0  0  0  0  0  0  0  0  0  0  0
    4.5602   -5.7631    1.3507 C   0  0  0  0  0  0  0  0  0  0  0  0
    3.7353   -5.3702    0.3056 C   0  0  0  0  0  0  0  0  0  0  0  0
    3.2360   -4.4749   -2.7599 C   0  0  0  0  0  0  0  0  0  0  0  0
    2.4243   -4.1400   -3.8379 C   0  0  0  0  0  0  0  0  0  0  0  0
    1.4724   -3.1342   -3.6997 C   0  0  0  0  0  0  0  0  0  0  0  0
    1.3170   -2.4489   -2.4856 C   0  0  0  0  0  0  0  0  0  0  0  0
    0.3532   -1.4328   -2.3681 C   0  0  0  0  0  0  0  0  0  0  0  0
    0.1711   -0.7228   -1.1712 C   0  0  0  0  0  0  0  0  0  0  0  0
   -0.7900    0.2960   -1.0573 C   0  0  0  0  0  0  0  0  0  0  0  0
   -0.9687    1.0053    0.1427 C   0  0  0  0  0  0  0  0  0  0  0  0
   -1.9294    2.0253    0.2588 C   0  0  0  0  0  0  0  0  0  0  0  0
   -2.1320    2.7477    1.4600 C   0  0  0  0  0  0  0  0  0  0  0  0
   -5.1254    3.4382    0.1514 C   0  0  0  0  0  0  0  0  0  0  0  0
   -5.4378    2.2970    0.8075 N   0  0  0  0  0  0  0  0  0  0  0  0
   -6.5147    1.6018    0.4132 C   0  0  0  0  0  0  0  0  0  0  0  0
   -6.8456    0.4244    1.0635 C   0  0  0  0  0  0  0  0  0  0  0  0
   -7.9445   -0.3316    0.6912 C   0  0  0  0  0  0  0  0  0  0  0  0
   -8.2269   -1.4680    1.3517 N   0  0  0  0  0  0  0  0  0  0  0  0
   -9.3042   -2.1688    0.9524 C   0  0  0  0  0  0  0  0  0  0  0  0
   -9.6379   -3.3505    1.6035 C   0  0  0  0  0  0  0  0  0  0  0  0
  -10.7471   -4.1043    1.2176 C   0  0  0  0  0  0  0  0  0  0  0  0
  -12.4038   -4.2447   -0.1509 H   0  0  0  0  0  0  0  0  0  0  0  0
  -11.8262   -2.1400   -1.3255 H   0  0  0  0  0  0  0  0  0  0  0  0
   -9.0327    1.6322   -1.8515 H   0  0  0  0  0  0  0  0  0  0  0  0
   -6.2605    5.3738   -2.4089 H   0  0  0  0  0  0  0  0  0  0  0  0
   -4.2789    6.7203   -1.7840 H   0  0  0  0  0  0  0  0  0  0  0  0
   -2.8221    5.9717    0.0708 H   0  0  0  0  0  0  0  0  0  0  0  0
   -3.9677    5.2316    2.9695 H   0  0  0  0  0  0  0  0  0  0  0  0
   -2.5283    4.6212    4.8723 H   0  0  0  0  0  0  0  0  0  0  0  0
   -0.8519    2.8381    4.6404 H   0  0  0  0  0  0  0  0  0  0  0  0
    0.2642    1.1455    3.3117 H   0  0  0  0  0  0  0  0  0  0  0  0
    1.4123   -0.5762    1.9995 H   0  0  0  0  0  0  0  0  0  0  0  0
    2.5453   -2.2850    0.6921 H   0  0  0  0  0  0  0  0  0  0  0  0
    6.1989   -0.1129   -1.9349 H   0  0  0  0  0  0  0  0  0  0  0  0
    8.9626    3.6633   -2.6067 H   0  0  0  0  0  0  0  0  0  0  0  0
   10.9279    5.0317   -1.9683 H   0  0  0  0  0  0  0  0  0  0  0  0
   12.3597    4.3137   -0.0635 H   0  0  0  0  0  0  0  0  0  0  0  0
   11.8056    2.2397    1.1728 H   0  0  0  0  0  0  0  0  0  0  0  0
    9.0529   -1.5372    1.8211 H   0  0  0  0  0  0  0  0  0  0  0  0
    6.3168   -5.2907    2.4932 H   0  0  0  0  0  0  0  0  0  0  0  0
    4.3400   -6.6642    1.9169 H   0  0  0  0  0  0  0  0  0  0  0  0
    2.8600   -5.9684    0.0582 H   0  0  0  0  0  0  0  0  0  0  0  0
    3.9856   -5.2538   -2.8861 H   0  0  0  0  0  0  0  0  0  0  0  0
    2.5396   -4.6554   -4.7874 H   0  0  0  0  0  0  0  0  0  0  0  0
    0.8517   -2.8831   -4.5572 H   0  0  0  0  0  0  0  0  0  0  0  0
   -0.2702   -1.1860   -3.2261 H   0  0  0  0  0  0  0  0  0  0  0  0
   -1.4120    0.5409   -1.9166 H   0  0  0  0  0  0  0  0  0  0  0  0
   -2.5419    2.2541   -0.6112 H   0  0  0  0  0  0  0  0  0  0  0  0
   -6.2233    0.0844    1.8878 H   0  0  0  0  0  0  0  0  0  0  0  0
   -9.0176   -3.6894    2.4299 H   0  0  0  0  0  0  0  0  0  0  0  0
  -10.9890   -5.0257    1.7414 H   0  0  0  0  0  0  0  0  0  0  0  0
  1  2  4  0
  2  3  4  0
  3  4  4  0
  4  5  4  0
  5  6  4  0
  6  7  4  0
  7  8  4  0
  8  9  4  0
  9 10  4  0
 10 11  4  0
 11 12  4  0
 12 13  4  0
 13 14  1  0
 14 15  4  0
 15 16  4  0
 16 17  4  0
 17 18  4  0
 18 19  4  0
 19 20  4  0
 20 21  4  0
 21 22  4  0
 22 23  4  0
 23 24  4  0
 24 25  4  0
 25 26  1  0
 26 27  4  0
 27 28  4  0
 28 29  4  0
 29 30  4  0
 30 31  4  0
 31 32  4  0
 32 33  4  0
 33 34  4  0
 34 35  4  0
 35 36  4  0
 36 37  4  0
 37 38  4  0
 38 39  4  0
 39 40  4  0
 40 41  4  0
 41 42  4  0
 42 43  4  0
 43 44  4  0
 44 45  4  0
 45 46  4  0
 46 47  4  0
 25 48  4  0
 48 49  4  0
 49 50  4  0
 50 51  4  0
 51 52  4  0
 52 53  4  0
 53 54  4  0
 54 55  4  0
 55 56  4  0
 56 57  4  0
 13 58  4  0
 58 59  4  0
 59 60  4  0
 60 61  4  0
 61 62  4  0
 62 63  4  0
 63 64  4  0
 64 65  4  0
 65 66  4  0
 66  1  4  0
 64  3  4  0
 62  5  4  0
 60  7  4  0
 58  9  4  0
 57 14  4  0
 57 18  4  0
 55 20  4  0
 53 22  4  0
 51 24  4  0
 47 26  4  0
 44 27  4  0
 42 29  4  0
 40 31  4  0
 38 33  4  0
  1 67  1  0
  2 68  1  0
  6 69  1  0
 10 70  1  0
 11 71  1  0
 12 72  1  0
 15 73  1  0
 16 74  1  0
 17 75  1  0
 19 76  1  0
 21 77  1  0
 23 78  1  0
 30 79  1  0
 34 80  1  0
 35 81  1  0
 36 82  1  0
 37 83  1  0
 41 84  1  0
 45 85  1  0
 46 86  1  0
 47 87  1  0
 48 88  1  0
 49 89  1  0
 50 90  1  0
 52 91  1  0
 54 92  1  0
 56 93  1  0
 61 94  1  0
 65 95  1  0
 66 96  1  0
M  END
