
     RDKit          3D

 96110  0  0  0  0  0  0  0  0999 V2000
   -6.1179   -1.2341    6.0691 C   0  0  0  0  0  0  0  0  0  0  0  0
   -4.9940   -0.4203    6.1263 C   0  0  0  0  0  0  0  0  0  0  0  0
   -4.6561    0.3630    5.0223 C   0  0  0  0  0  0  0  0  0  0  0  0
   -5.4236    0.3462    3.8641 C   0  0  0  0  0  0  0  0  0  0  0  0
   -5.0735    1.1150    2.8199 N   0  0  0  0  0  0  0  0  0  0  0  0
   -5.8269    1.0739    1.6977 C   0  0  0  0  0  0  0  0  0  0  0  0
   -6.9586    0.2385    1.6541 C   0  0  0  0  0  0  0  0  0  0  0  0
   -7.3212   -0.5292    2.6961 N   0  0  0  0  0  0  0  0  0  0  0  0
   -6.5599   -0.4816    3.8029 C   0  0  0  0  0  0  0  0  0  0  0  0
   -6.8909   -1.2582    4.9073 C   0  0  0  0  0  0  0  0  0  0  0  0
   -7.7292    0.1955    0.5098 C   0  0  0  0  0  0  0  0  0  0  0  0
   -7.4277    0.9468   -0.6082 C   0  0  0  0  0  0  0  0  0  0  0  0
   -8.2327    0.8439   -1.6797 N   0  0  0  0  0  0  0  0  0  0  0  0
   -7.9279    1.5785   -2.7631 C   0  0  0  0  0  0  0  0  0  0  0  0
   -8.7285    1.5070   -3.8972 C   0  0  0  0  0  0  0  0  0  0  0  0
   -8.4395    2.2578   -5.0374 C   0  0  0  0  0  0  0  0  0  0  0  0
   -7.3310    3.0940   -5.0431 C   0  0  0  0  0  0  0  0  0  0  0  0
   -6.5224    3.1706   -3.9087 C   0  0  0  0  0  0  0  0  0  0  0  0
   -6.8045    2.4262   -2.7698 C   0  0  0  0  0  0  0  0  0  0  0  0
   -6.0065    2.5244   -1.6931 N   0  0  0  0  0  0  0  0  0  0  0  0
   -6.2996    1.7894   -0.5959 C   0  0  0  0  0  0  0  0  0  0  0  0
   -5.5034    1.8447    0.5642 C   0  0  0  0  0  0  0  0  0  0  0  0
   -4.3156    2.7377    0.5997 C   0  0  0  0  0  0  0  0  0  0  0  0
   -4.5280    4.1139    0.8151 C   0  0  0  0  0  0  0  0  0  0  0  0
   -3.4613    5.0032    0.8761 C   0  0  0  0  0  0  0  0  0  0  0  0
   -2.1614    4.5325    0.7248 C   0  0  0  0  0  0  0  0  0  0  0  0
   -1.9073    3.1701    0.5074 C   0  0  0  0  0  0  0  0  0  0  0  0
   -0.5841    2.7192    0.3627 C   0  0  0  0  0  0  0  0  0  0  0  0
   -0.2838    1.3653    0.1495 C   0  0  0  0  0  0  0  0  0  0  0  0
    1.0420    0.9166    0.0171 C   0  0  0  0  0  0  0  0  0  0  0  0
    1.3401   -0.4412   -0.1896 C   0  0  0  0  0  0  0  0  0  0  0  0
    2.6661   -0.8937   -0.3134 C   0  0  0  0  0  0  0  0  0  0  0  0
    2.9897   -2.2572   -0.5180 C   0  0  0  0  0  0  0  0  0  0  0  0
    4.3256   -2.7451   -0.6422 C   0  0  0  0  0  0  0  0  0  0  0  0
    5.5095   -1.8520   -0.5647 C   0  0  0  0  0  0  0  0  0  0  0  0
    6.0974   -1.5840    0.6871 C   0  0  0  0  0  0  0  0  0  0  0  0
    5.6095   -2.1185    1.8305 N   0  0  0  0  0  0  0  0  0  0  0  0
    6.2124   -1.8198    2.9943 C   0  0  0  0  0  0  0  0  0  0  0  0
    5.7265   -2.3531    4.1822 C   0  0  0  0  0  0  0  0  0  0  0  0
    6.3298   -2.0651    5.4072 C   0  0  0  0  0  0  0  0  0  0  0  0
    7.4382   -1.2293    5.4441 C   0  0  0  0  0  0  0  0  0  0  0  0
    7.9305   -0.6891    4.2549 C   0  0  0  0  0  0  0  0  0  0  0  0
    7.3342   -0.9708    3.0306 C   0  0  0  0  0  0  0  0  0  0  0  0
    7.8306   -0.4342    1.9022 N   0  0  0  0  0  0  0  0  0  0  0  0
    7.2189   -0.7356    0.7433 C   0  0  0  0  0  0  0  0  0  0  0  0
    7.7162   -0.1865   -0.4221 C   0  0  0  0  0  0  0  0  0  0  0  0
    7.1507   -0.4402   -1.6562 C   0  0  0  0  0  0  0  0  0  0  0  0
    7.6957    0.1399   -2.7397 N   0  0  0  0  0  0  0  0  0  0  0  0
    7.1340   -0.1124   -3.9349 C   0  0  0  0  0  0  0  0  0  0  0  0
    7.6579    0.4670   -5.0849 C   0  0  0  0  0  0  0  0  0  0  0  0
    7.0973    0.2252   -6.3401 C   0  0  0  0  0  0  0  0  0  0  0  0
    5.9933   -0.6104   -6.4463 C   0  0  0  0  0  0  0  0  0  0  0  0
    5.4617   -1.1954   -5.2963 C   0  0  0  0  0  0  0  0  0  0  0  0
    6.0153   -0.9590   -4.0435 C   0  0  0  0  0  0  0  0  0  0  0  0
    5.4790   -1.5371   -2.9550 N   0  0  0  0  0  0  0  0  0  0  0  0
    6.0308   -1.2877   -1.7451 C   0  0  0  0  0  0  0  0  0  0  0  0
    4.5442   -4.1214   -0.8467 C   0  0  0  0  0  0  0  0  0  0  0  0
    3.4788   -5.0108   -0.9281 C   0  0  0  0  0  0  0  0  0  0  0  0
    2.1753   -4.5396   -0.8061 C   0  0  0  0  0  0  0  0  0  0  0  0
    1.9159   -3.1760   -0.6020 C   0  0  0  0  0  0  0  0  0  0  0  0
    0.5906   -2.7235   -0.4799 C   0  0  0  0  0  0  0  0  0  0  0  0
    0.2889   -1.3687   -0.2721 C   0  0  0  0  0  0  0  0  0  0  0  0
   -1.0369   -0.9191   -0.1426 C   0  0  0  0  0  0  0  0  0  0  0  0
   -1.3355    0.4381    0.0700 C   0  0  0  0  0  0  0  0  0  0  0  0
   -2.6608    0.8906    0.2094 C   0  0  0  0  0  0  0  0  0  0  0  0
   -2.9824    2.2514    0.4374 C   0  0  0  0  0  0  0  0  0  0  0  0
   -6.3941   -1.8500    6.9208 H   0  0  0  0  0  0  0  0  0  0  0  0
   -4.3794   -0.3921    7.0224 H   0  0  0  0  0  0  0  0  0  0  0  0
   -3.7748    0.9996    5.0603 H   0  0  0  0  0  0  0  0  0  0  0  0
   -7.7704   -1.8953    4.8587 H   0  0  0  0  0  0  0  0  0  0  0  0
   -8.6034   -0.4519    0.4883 H   0  0  0  0  0  0  0  0  0  0  0  0
   -9.5956    0.8511   -3.8899 H   0  0  0  0  0  0  0  0  0  0  0  0
   -9.0790    2.1860   -5.9131 H   0  0  0  0  0  0  0  0  0  0  0  0
   -7.0913    3.6849   -5.9232 H   0  0  0  0  0  0  0  0  0  0  0  0
   -5.6522    3.8228   -3.9086 H   0  0  0  0  0  0  0  0  0  0  0  0
   -5.5392    4.4970    0.9367 H   0  0  0  0  0  0  0  0  0  0  0  0
   -3.6427    6.0609    1.0439 H   0  0  0  0  0  0  0  0  0  0  0  0
   -1.3406    5.2444    0.7799 H   0  0  0  0  0  0  0  0  0  0  0  0
    0.2313    3.4378    0.4214 H   0  0  0  0  0  0  0  0  0  0  0  0
    1.8567    1.6360    0.0799 H   0  0  0  0  0  0  0  0  0  0  0  0
    3.4647   -0.1586   -0.2460 H   0  0  0  0  0  0  0  0  0  0  0  0
    4.8574   -3.0061    4.1481 H   0  0  0  0  0  0  0  0  0  0  0  0
    5.9316   -2.4938    6.3235 H   0  0  0  0  0  0  0  0  0  0  0  0
    7.9201   -0.9960    6.3903 H   0  0  0  0  0  0  0  0  0  0  0  0
    8.7982   -0.0342    4.2793 H   0  0  0  0  0  0  0  0  0  0  0  0
    8.5826    0.4691   -0.3661 H   0  0  0  0  0  0  0  0  0  0  0  0
    8.5219    1.1213   -4.9981 H   0  0  0  0  0  0  0  0  0  0  0  0
    7.5233    0.6892   -7.2261 H   0  0  0  0  0  0  0  0  0  0  0  0
    5.5439   -0.8085   -7.4161 H   0  0  0  0  0  0  0  0  0  0  0  0
    4.5961   -1.8493   -5.3735 H   0  0  0  0  0  0  0  0  0  0  0  0
    5.5581   -4.5038   -0.9440 H   0  0  0  0  0  0  0  0  0  0  0  0
    3.6638   -6.0697   -1.0856 H   0  0  0  0  0  0  0  0  0  0  0  0
    1.3557   -5.2521   -0.8711 H   0  0  0  0  0  0  0  0  0  0  0  0
   -0.2246   -3.4418   -0.5468 H   0  0  0  0  0  0  0  0  0  0  0  0
   -1.8512   -1.6390   -0.2037 H   0  0  0  0  0  0  0  0  0  0  0  0
   -3.4609    0.1565    0.1449 H   0  0  0  0  0  0  0  0  0  0  0  0
  1  2  4  0
  2  3  4  0
  3  4  4  0
  4  5  4  0
  5  6  4  0
  6  7  4  0
  7  8  4  0
  8  9  4  0
  9 10  4  0
  7 11  4  0
 11 12  4  0
 12 13  4  0
 13 14  4  0
 14 15  4  0
 15 16  4  0
 16 17  4  0
 17 18  4  0
 18 19  4  0
 19 20  4  0
 20 21  4  0
 21 22  4  0
 22 23  1  0
 23 24  4  0
 24 25  4  0
 25 26  4  0
 26 27  4  0
 27 28  4  0
 28 29  4  0
 29 30  4  0
 30 31  4  0
 31 32  4  0
 32 33  4  0
 33 34  4  0
 34 35  1  0
 35 36  4  0
 36 37  4  0
 37 38  4  0
 38 39  4  0
 39 40  4  0
 40 41  4  0
 41 42  4  0
 42 43  4  0
 43 44  4  0
 44 45  4  0
 45 46  4  0
 46 47  4  0
 47 48  4  0
 48 49  4  0
 49 50  4  0
 50 51  4  0
 51 52  4  0
 52 53  4  0
 53 54  4  0
 54 55  4  0
 55 56  4  0
 34 57  4  0
 57 58  4  0
 58 59  4  0
 59 60  4  0
 60 61  4  0
 61 62  4  0
 62 63  4  0
 63 64  4  0
 64 65  4  0
 65 66  4  0
 10  1  4  0
 21 12  4  0
 66 23  4  0
  9  4  4  0
 19 14  4  0
 66 27  4  0
 22  6  4  0
 64 29  4  0
 62 31  4  0
 60 33  4  0
 56 35  4  0
 45 36  4  0
 56 47  4  0
 43 38  4  0
 54 49  4  0
  1 67  1  0
  2 68  1  0
  3 69  1  0
 10 70  1  0
 11 71  1  0
 15 72  1  0
 16 73  1  0
 17 74  1  0
 18 75  1  0
 24 76  1  0
 25 77  1  0
 26 78  1  0
 28 79  1  0
 30 80  1  0
 32 81  1  0
 39 82  1  0
 40 83  1  0
 41 84  1  0
 42 85  1  0
 46 86  1  0
 50 87  1  0
 51 88  1  0
 52 89  1  0
 53 90  1  0
 57 91  1  0
 58 92  1  0
 59 93  1  0
 61 94  1  0
 63 95  1  0
 65 96  1  0
M  END
