
     RDKit          3D

100114  0  0  0  0  0  0  0  0999 V2000
  -15.5225   -1.0186    1.8158 C   0  0  0  0  0  0  0  0  0  0  0  0
  -14.6818   -1.7156    0.9510 C   0  0  0  0  0  0  0  0  0  0  0  0
  -13.4530   -1.1586    0.5529 C   0  0  0  0  0  0  0  0  0  0  0  0
  -12.5838   -1.8298   -0.3137 C   0  0  0  0  0  0  0  0  0  0  0  0
  -11.3702   -1.2412   -0.6863 C   0  0  0  0  0  0  0  0  0  0  0  0
  -10.4663   -1.8818   -1.5546 C   0  0  0  0  0  0  0  0  0  0  0  0
   -9.2650   -1.2956   -1.9203 C   0  0  0  0  0  0  0  0  0  0  0  0
   -8.4352   -1.9515   -2.7488 N   0  0  0  0  0  0  0  0  0  0  0  0
   -7.2689   -1.3799   -3.0969 C   0  0  0  0  0  0  0  0  0  0  0  0
   -6.4037   -2.0563   -3.9446 C   0  0  0  0  0  0  0  0  0  0  0  0
   -5.1739   -1.5107   -4.3315 C   0  0  0  0  0  0  0  0  0  0  0  0
   -4.7786   -0.2515   -3.8701 C   0  0  0  0  0  0  0  0  0  0  0  0
   -3.4846    0.3286   -4.2648 C   0  0  0  0  0  0  0  0  0  0  0  0
   -3.3681    0.8764   -5.5555 C   0  0  0  0  0  0  0  0  0  0  0  0
   -2.1791    1.4580   -5.9819 C   0  0  0  0  0  0  0  0  0  0  0  0
   -1.0855    1.5031   -5.1230 C   0  0  0  0  0  0  0  0  0  0  0  0
   -1.1603    0.9640   -3.8301 C   0  0  0  0  0  0  0  0  0  0  0  0
   -0.0440    1.0193   -2.9776 C   0  0  0  0  0  0  0  0  0  0  0  0
   -0.0797    0.4881   -1.6788 C   0  0  0  0  0  0  0  0  0  0  0  0
    1.0354    0.5485   -0.8252 C   0  0  0  0  0  0  0  0  0  0  0  0
    0.9932    0.0163    0.4750 C   0  0  0  0  0  0  0  0  0  0  0  0
    2.1057    0.0790    1.3329 C   0  0  0  0  0  0  0  0  0  0  0  0
    2.0820   -0.4442    2.6485 C   0  0  0  0  0  0  0  0  0  0  0  0
    3.1928   -0.3880    3.5412 C   0  0  0  0  0  0  0  0  0  0  0  0
    4.4728    0.2387    3.1743 C   0  0  0  0  0  0  0  0  0  0  0  0
    4.6365    1.6263    3.2332 C   0  0  0  0  0  0  0  0  0  0  0  0
    5.8602    2.2134    2.8911 C   0  0  0  0  0  0  0  0  0  0  0  0
    6.9485    1.4526    2.4900 C   0  0  0  0  0  0  0  0  0  0  0  0
    8.1026    2.0668    2.1759 N   0  0  0  0  0  0  0  0  0  0  0  0
    9.1560    1.3267    1.7921 C   0  0  0  0  0  0  0  0  0  0  0  0
   10.3475    1.9556    1.4688 C   0  0  0  0  0  0  0  0  0  0  0  0
   11.4822    1.2297    1.0610 C   0  0  0  0  0  0  0  0  0  0  0  0
   12.6869    1.8615    0.7335 C   0  0  0  0  0  0  0  0  0  0  0  0
   13.7914    1.1024    0.3326 C   0  0  0  0  0  0  0  0  0  0  0  0
   15.0192    1.6993   -0.0049 C   0  0  0  0  0  0  0  0  0  0  0  0
   16.0983    0.9120   -0.3999 C   0  0  0  0  0  0  0  0  0  0  0  0
   15.9546   -0.4693   -0.4587 C   0  0  0  0  0  0  0  0  0  0  0  0
   14.7314   -1.0567   -0.1219 C   0  0  0  0  0  0  0  0  0  0  0  0
   13.6399   -0.2961    0.2749 C   0  0  0  0  0  0  0  0  0  0  0  0
   12.4852   -0.9107    0.5884 N   0  0  0  0  0  0  0  0  0  0  0  0
   11.4317   -0.1704    0.9716 C   0  0  0  0  0  0  0  0  0  0  0  0
   10.2401   -0.7993    1.2951 C   0  0  0  0  0  0  0  0  0  0  0  0
    9.1050   -0.0733    1.7024 C   0  0  0  0  0  0  0  0  0  0  0  0
    7.8993   -0.7041    2.0298 C   0  0  0  0  0  0  0  0  0  0  0  0
    6.7949    0.0555    2.4316 C   0  0  0  0  0  0  0  0  0  0  0  0
    5.5654   -0.5408    2.7712 C   0  0  0  0  0  0  0  0  0  0  0  0
    3.0745   -0.9444    4.8284 C   0  0  0  0  0  0  0  0  0  0  0  0
    1.8913   -1.5449    5.2440 C   0  0  0  0  0  0  0  0  0  0  0  0
    0.8040   -1.5987    4.3777 C   0  0  0  0  0  0  0  0  0  0  0  0
    0.8829   -1.0567    3.0863 C   0  0  0  0  0  0  0  0  0  0  0  0
   -0.2278   -1.1218    2.2281 C   0  0  0  0  0  0  0  0  0  0  0  0
   -0.1890   -0.5916    0.9296 C   0  0  0  0  0  0  0  0  0  0  0  0
   -1.3033   -0.6543    0.0758 C   0  0  0  0  0  0  0  0  0  0  0  0
   -1.2610   -0.1196   -1.2228 C   0  0  0  0  0  0  0  0  0  0  0  0
   -2.3758   -0.1777   -2.0765 C   0  0  0  0  0  0  0  0  0  0  0  0
   -2.3622    0.3634   -3.3848 C   0  0  0  0  0  0  0  0  0  0  0  0
   -5.6489    0.4458   -3.0210 C   0  0  0  0  0  0  0  0  0  0  0  0
   -6.8806   -0.1111   -2.6301 C   0  0  0  0  0  0  0  0  0  0  0  0
   -7.7536    0.5626   -1.7700 C   0  0  0  0  0  0  0  0  0  0  0  0
   -8.9668   -0.0268   -1.3988 C   0  0  0  0  0  0  0  0  0  0  0  0
   -9.8706    0.6140   -0.5309 C   0  0  0  0  0  0  0  0  0  0  0  0
  -11.0702    0.0266   -0.1633 C   0  0  0  0  0  0  0  0  0  0  0  0
  -11.8951    0.6809    0.6705 N   0  0  0  0  0  0  0  0  0  0  0  0
  -13.0600    0.1086    1.0239 C   0  0  0  0  0  0  0  0  0  0  0  0
  -13.9170    0.7813    1.8849 C   0  0  0  0  0  0  0  0  0  0  0  0
  -15.1395    0.2328    2.2842 C   0  0  0  0  0  0  0  0  0  0  0  0
  -16.4717   -1.4505    2.1224 H   0  0  0  0  0  0  0  0  0  0  0  0
  -14.9885   -2.6942    0.5887 H   0  0  0  0  0  0  0  0  0  0  0  0
  -12.8525   -2.8109   -0.6987 H   0  0  0  0  0  0  0  0  0  0  0  0
  -10.7005   -2.8648   -1.9579 H   0  0  0  0  0  0  0  0  0  0  0  0
   -6.6905   -3.0388   -4.3125 H   0  0  0  0  0  0  0  0  0  0  0  0
   -4.5238   -2.0822   -4.9909 H   0  0  0  0  0  0  0  0  0  0  0  0
   -4.2181    0.8555   -6.2355 H   0  0  0  0  0  0  0  0  0  0  0  0
   -2.1055    1.8790   -6.9812 H   0  0  0  0  0  0  0  0  0  0  0  0
   -0.1652    1.9653   -5.4745 H   0  0  0  0  0  0  0  0  0  0  0  0
    0.8733    1.4869   -3.3318 H   0  0  0  0  0  0  0  0  0  0  0  0
    1.9518    1.0195   -1.1777 H   0  0  0  0  0  0  0  0  0  0  0  0
    3.0141    0.5504    0.9616 H   0  0  0  0  0  0  0  0  0  0  0  0
    3.8108    2.2625    3.5468 H   0  0  0  0  0  0  0  0  0  0  0  0
    5.9659    3.2945    2.9426 H   0  0  0  0  0  0  0  0  0  0  0  0
   10.3898    3.0406    1.5382 H   0  0  0  0  0  0  0  0  0  0  0  0
   12.7652    2.9448    0.7902 H   0  0  0  0  0  0  0  0  0  0  0  0
   15.1394    2.7793    0.0387 H   0  0  0  0  0  0  0  0  0  0  0  0
   17.0464    1.3751   -0.6604 H   0  0  0  0  0  0  0  0  0  0  0  0
   16.7889   -1.0946   -0.7654 H   0  0  0  0  0  0  0  0  0  0  0  0
   14.6263   -2.1380   -0.1703 H   0  0  0  0  0  0  0  0  0  0  0  0
   10.1994   -1.8844    1.2269 H   0  0  0  0  0  0  0  0  0  0  0  0
    7.8215   -1.7876    1.9731 H   0  0  0  0  0  0  0  0  0  0  0  0
    5.4552   -1.6230    2.7205 H   0  0  0  0  0  0  0  0  0  0  0  0
    3.9159   -0.9031    5.5182 H   0  0  0  0  0  0  0  0  0  0  0  0
    1.8150   -1.9673    6.2424 H   0  0  0  0  0  0  0  0  0  0  0  0
   -0.1142   -2.0708    4.7221 H   0  0  0  0  0  0  0  0  0  0  0  0
   -1.1439   -1.5949    2.5784 H   0  0  0  0  0  0  0  0  0  0  0  0
   -2.2198   -1.1253    0.4279 H   0  0  0  0  0  0  0  0  0  0  0  0
   -3.2784   -0.6622   -1.7079 H   0  0  0  0  0  0  0  0  0  0  0  0
   -5.3577    1.4298   -2.6557 H   0  0  0  0  0  0  0  0  0  0  0  0
   -7.4873    1.5452   -1.3865 H   0  0  0  0  0  0  0  0  0  0  0  0
   -9.6368    1.5971   -0.1277 H   0  0  0  0  0  0  0  0  0  0  0  0
  -13.6245    1.7609    2.2556 H   0  0  0  0  0  0  0  0  0  0  0  0
  -15.7863    0.7868    2.9594 H   0  0  0  0  0  0  0  0  0  0  0  0
  1  2  4  0
  2  3  4  0
  3  4  4  0
  4  5  4  0
  5  6  4  0
  6  7  4  0
  7  8  4  0
  8  9  4  0
  9 10  4  0
 10 11  4  0
 11 12  4  0
 12 13  1  0
 13 14  4  0
 14 15  4  0
 15 16  4  0
 16 17  4  0
 17 18  4  0
 18 19  4  0
 19 20  4  0
 20 21  4  0
 21 22  4  0
 22 23  4  0
 23 24  4  0
 24 25  1  0
 25 26  4  0
 26 27  4  0
 27 28  4  0
 28 29  4  0
 29 30  4  0
 30 31  4  0
 31 32  4  0
 32 33  4  0
 33 34  4  0
 34 35  4  0
 35 36  4  0
 36 37  4  0
 37 38  4  0
 38 39  4  0
 39 40  4  0
 40 41  4  0
 41 42  4  0
 42 43  4  0
 43 44  4  0
 44 45  4  0
 45 46  4  0
 24 47  4  0
 47 48  4  0
 48 49  4  0
 49 50  4  0
 50 51  4  0
 51 52  4  0
 52 53  4  0
 53 54  4  0
 54 55  4  0
 55 56  4  0
 12 57  4  0
 57 58  4  0
 58 59  4  0
 59 60  4  0
 60 61  4  0
 61 62  4  0
 62 63  4  0
 63 64  4  0
 64 65  4  0
 65 66  4  0
 66  1  4  0
 64  3  4  0
 62  5  4  0
 60  7  4  0
 58  9  4  0
 56 13  4  0
 56 17  4  0
 54 19  4  0
 52 21  4  0
 50 23  4  0
 46 25  4  0
 45 28  4  0
 43 30  4  0
 41 32  4  0
 39 34  4  0
  1 67  1  0
  2 68  1  0
  4 69  1  0
  6 70  1  0
 10 71  1  0
 11 72  1  0
 14 73  1  0
 15 74  1  0
 16 75  1  0
 18 76  1  0
 20 77  1  0
 22 78  1  0
 26 79  1  0
 27 80  1  0
 31 81  1  0
 33 82  1  0
 35 83  1  0
 36 84  1  0
 37 85  1  0
 38 86  1  0
 42 87  1  0
 44 88  1  0
 46 89  1  0
 47 90  1  0
 48 91  1  0
 49 92  1  0
 51 93  1  0
 53 94  1  0
 55 95  1  0
 57 96  1  0
 59 97  1  0
 61 98  1  0
 65 99  1  0
 66100  1  0
M  END
