
     RDKit          3D

100114  0  0  0  0  0  0  0  0999 V2000
   -7.3067    5.9059    2.0106 C   0  0  0  0  0  0  0  0  0  0  0  0
   -6.1441    5.7777    2.7620 C   0  0  0  0  0  0  0  0  0  0  0  0
   -5.5599    4.5189    2.9301 C   0  0  0  0  0  0  0  0  0  0  0  0
   -6.1095    3.3778    2.3627 C   0  0  0  0  0  0  0  0  0  0  0  0
   -5.5123    2.1907    2.5559 N   0  0  0  0  0  0  0  0  0  0  0  0
   -6.0278    1.0650    2.0135 C   0  0  0  0  0  0  0  0  0  0  0  0
   -7.1968    1.1140    1.2369 C   0  0  0  0  0  0  0  0  0  0  0  0
   -7.8194    2.3527    1.0378 C   0  0  0  0  0  0  0  0  0  0  0  0
   -7.2816    3.5119    1.6028 C   0  0  0  0  0  0  0  0  0  0  0  0
   -7.8767    4.7750    1.4298 C   0  0  0  0  0  0  0  0  0  0  0  0
   -7.7300   -0.0551    0.6756 C   0  0  0  0  0  0  0  0  0  0  0  0
   -7.1439   -1.2923    0.8582 C   0  0  0  0  0  0  0  0  0  0  0  0
   -7.7315   -2.3534    0.2812 N   0  0  0  0  0  0  0  0  0  0  0  0
   -7.1915   -3.5731    0.4373 C   0  0  0  0  0  0  0  0  0  0  0  0
   -7.7960   -4.6726   -0.1588 C   0  0  0  0  0  0  0  0  0  0  0  0
   -7.2730   -5.9625   -0.0258 C   0  0  0  0  0  0  0  0  0  0  0  0
   -6.1176   -6.1659    0.7194 C   0  0  0  0  0  0  0  0  0  0  0  0
   -5.4926   -5.0792    1.3271 C   0  0  0  0  0  0  0  0  0  0  0  0
   -6.0254   -3.7845    1.1888 C   0  0  0  0  0  0  0  0  0  0  0  0
   -5.4271   -2.6676    1.7836 C   0  0  0  0  0  0  0  0  0  0  0  0
   -5.9746   -1.3757    1.6323 C   0  0  0  0  0  0  0  0  0  0  0  0
   -5.4154   -0.1892    2.2095 C   0  0  0  0  0  0  0  0  0  0  0  0
   -4.1858   -0.2656    3.0407 C   0  0  0  0  0  0  0  0  0  0  0  0
   -4.3375   -0.3911    4.4351 C   0  0  0  0  0  0  0  0  0  0  0  0
   -3.2301   -0.4784    5.2704 C   0  0  0  0  0  0  0  0  0  0  0  0
   -1.9505   -0.4428    4.7252 C   0  0  0  0  0  0  0  0  0  0  0  0
   -1.7576   -0.3153    3.3412 C   0  0  0  0  0  0  0  0  0  0  0  0
   -0.4557   -0.2786    2.8131 C   0  0  0  0  0  0  0  0  0  0  0  0
   -0.2208   -0.1522    1.4354 C   0  0  0  0  0  0  0  0  0  0  0  0
    1.0834   -0.1166    0.9108 C   0  0  0  0  0  0  0  0  0  0  0  0
    1.3167    0.0091   -0.4694 C   0  0  0  0  0  0  0  0  0  0  0  0
    2.6206    0.0455   -0.9971 C   0  0  0  0  0  0  0  0  0  0  0  0
    2.8759    0.1735   -2.3837 C   0  0  0  0  0  0  0  0  0  0  0  0
    4.1868    0.2238   -2.9457 C   0  0  0  0  0  0  0  0  0  0  0  0
    5.4153    0.1785   -2.1107 C   0  0  0  0  0  0  0  0  0  0  0  0
    5.9632    1.3877   -1.5687 C   0  0  0  0  0  0  0  0  0  0  0  0
    5.4040    2.6700   -1.7581 C   0  0  0  0  0  0  0  0  0  0  0  0
    5.9974    3.8112   -1.2055 C   0  0  0  0  0  0  0  0  0  0  0  0
    5.4561    5.0970   -1.3874 C   0  0  0  0  0  0  0  0  0  0  0  0
    6.0796    6.2092   -0.8258 C   0  0  0  0  0  0  0  0  0  0  0  0
    7.2415    6.0403   -0.0820 C   0  0  0  0  0  0  0  0  0  0  0  0
    7.7716    4.7588    0.0966 C   0  0  0  0  0  0  0  0  0  0  0  0
    7.1687    3.6344   -0.4533 C   0  0  0  0  0  0  0  0  0  0  0  0
    7.7150    2.4233   -0.2549 N   0  0  0  0  0  0  0  0  0  0  0  0
    7.1330    1.3387   -0.7934 C   0  0  0  0  0  0  0  0  0  0  0  0
    7.7261    0.1118   -0.5682 C   0  0  0  0  0  0  0  0  0  0  0  0
    7.2023   -1.0793   -1.0914 C   0  0  0  0  0  0  0  0  0  0  0  0
    7.8306   -2.3067   -0.8448 C   0  0  0  0  0  0  0  0  0  0  0  0
    7.3031   -3.4887   -1.3711 C   0  0  0  0  0  0  0  0  0  0  0  0
    7.9023   -4.7416   -1.1455 C   0  0  0  0  0  0  0  0  0  0  0  0
    7.3429   -5.8963   -1.6888 C   0  0  0  0  0  0  0  0  0  0  0  0
    6.1874   -5.8026   -2.4558 C   0  0  0  0  0  0  0  0  0  0  0  0
    5.5985   -4.5536   -2.6753 C   0  0  0  0  0  0  0  0  0  0  0  0
    6.1371   -3.3886   -2.1453 C   0  0  0  0  0  0  0  0  0  0  0  0
    5.5348   -2.2119   -2.3847 N   0  0  0  0  0  0  0  0  0  0  0  0
    6.0375   -1.0646   -1.8754 C   0  0  0  0  0  0  0  0  0  0  0  0
    4.3394    0.3407   -4.3409 C   0  0  0  0  0  0  0  0  0  0  0  0
    3.2319    0.4189   -5.1771 C   0  0  0  0  0  0  0  0  0  0  0  0
    1.9520    0.3814   -4.6325 C   0  0  0  0  0  0  0  0  0  0  0  0
    1.7584    0.2589   -3.2483 C   0  0  0  0  0  0  0  0  0  0  0  0
    0.4559    0.2222   -2.7211 C   0  0  0  0  0  0  0  0  0  0  0  0
    0.2204    0.1006   -1.3430 C   0  0  0  0  0  0  0  0  0  0  0  0
   -1.0838    0.0673   -0.8181 C   0  0  0  0  0  0  0  0  0  0  0  0
   -1.3173   -0.0578    0.5623 C   0  0  0  0  0  0  0  0  0  0  0  0
   -2.6209   -0.0903    1.0910 C   0  0  0  0  0  0  0  0  0  0  0  0
   -2.8754   -0.2218    2.4776 C   0  0  0  0  0  0  0  0  0  0  0  0
   -7.7666    6.8812    1.8762 H   0  0  0  0  0  0  0  0  0  0  0  0
   -5.6852    6.6502    3.2190 H   0  0  0  0  0  0  0  0  0  0  0  0
   -4.6505    4.4233    3.5190 H   0  0  0  0  0  0  0  0  0  0  0  0
   -8.7276    2.4153    0.4421 H   0  0  0  0  0  0  0  0  0  0  0  0
   -8.7851    4.8806    0.8421 H   0  0  0  0  0  0  0  0  0  0  0  0
   -8.6369   -0.0056    0.0750 H   0  0  0  0  0  0  0  0  0  0  0  0
   -8.6999   -4.5198   -0.7435 H   0  0  0  0  0  0  0  0  0  0  0  0
   -7.7707   -6.8013   -0.5055 H   0  0  0  0  0  0  0  0  0  0  0  0
   -5.7041   -7.1653    0.8271 H   0  0  0  0  0  0  0  0  0  0  0  0
   -4.5880   -5.2439    1.9083 H   0  0  0  0  0  0  0  0  0  0  0  0
   -4.5213   -2.8100    2.3699 H   0  0  0  0  0  0  0  0  0  0  0  0
   -5.3336   -0.4102    4.8738 H   0  0  0  0  0  0  0  0  0  0  0  0
   -3.3645   -0.5664    6.3449 H   0  0  0  0  0  0  0  0  0  0  0  0
   -1.0966   -0.5078    5.3963 H   0  0  0  0  0  0  0  0  0  0  0  0
    0.3952   -0.3494    3.4886 H   0  0  0  0  0  0  0  0  0  0  0  0
    1.9328   -0.1868    1.5885 H   0  0  0  0  0  0  0  0  0  0  0  0
    3.4576   -0.0344   -0.3057 H   0  0  0  0  0  0  0  0  0  0  0  0
    4.4933    2.7859   -2.3431 H   0  0  0  0  0  0  0  0  0  0  0  0
    4.5465    5.2351   -1.9680 H   0  0  0  0  0  0  0  0  0  0  0  0
    5.6591    7.2011   -0.9690 H   0  0  0  0  0  0  0  0  0  0  0  0
    7.7386    6.8995    0.3608 H   0  0  0  0  0  0  0  0  0  0  0  0
    8.6806    4.6323    0.6796 H   0  0  0  0  0  0  0  0  0  0  0  0
    8.6315    0.0884    0.0361 H   0  0  0  0  0  0  0  0  0  0  0  0
    8.7345   -2.3429   -0.2403 H   0  0  0  0  0  0  0  0  0  0  0  0
    8.8058   -4.8219   -0.5457 H   0  0  0  0  0  0  0  0  0  0  0  0
    7.8062   -6.8638   -1.5135 H   0  0  0  0  0  0  0  0  0  0  0  0
    5.7397   -6.6952   -2.8848 H   0  0  0  0  0  0  0  0  0  0  0  0
    4.6937   -4.4846   -3.2750 H   0  0  0  0  0  0  0  0  0  0  0  0
    5.3357    0.3657   -4.7786 H   0  0  0  0  0  0  0  0  0  0  0  0
    3.3655    0.5059   -6.2517 H   0  0  0  0  0  0  0  0  0  0  0  0
    1.0983    0.4442   -5.3041 H   0  0  0  0  0  0  0  0  0  0  0  0
   -0.3933    0.2886   -3.3990 H   0  0  0  0  0  0  0  0  0  0  0  0
   -1.9325    0.1405   -1.4960 H   0  0  0  0  0  0  0  0  0  0  0  0
   -3.4586   -0.0056    0.4009 H   0  0  0  0  0  0  0  0  0  0  0  0
  1  2  4  0
  2  3  4  0
  3  4  4  0
  4  5  4  0
  5  6  4  0
  6  7  4  0
  7  8  4  0
  8  9  4  0
  9 10  4  0
  7 11  4  0
 11 12  4  0
 12 13  4  0
 13 14  4  0
 14 15  4  0
 15 16  4  0
 16 17  4  0
 17 18  4  0
 18 19  4  0
 19 20  4  0
 20 21  4  0
 21 22  4  0
 22 23  1  0
 23 24  4  0
 24 25  4  0
 25 26  4  0
 26 27  4  0
 27 28  4  0
 28 29  4  0
 29 30  4  0
 30 31  4  0
 31 32  4  0
 32 33  4  0
 33 34  4  0
 34 35  1  0
 35 36  4  0
 36 37  4  0
 37 38  4  0
 38 39  4  0
 39 40  4  0
 40 41  4  0
 41 42  4  0
 42 43  4  0
 43 44  4  0
 44 45  4  0
 45 46  4  0
 46 47  4  0
 47 48  4  0
 48 49  4  0
 49 50  4  0
 50 51  4  0
 51 52  4  0
 52 53  4  0
 53 54  4  0
 54 55  4  0
 55 56  4  0
 34 57  4  0
 57 58  4  0
 58 59  4  0
 59 60  4  0
 60 61  4  0
 61 62  4  0
 62 63  4  0
 63 64  4  0
 64 65  4  0
 65 66  4  0
 10  1  4  0
 21 12  4  0
 66 23  4  0
  9  4  4  0
 19 14  4  0
 66 27  4  0
 22  6  4  0
 64 29  4  0
 62 31  4  0
 60 33  4  0
 56 35  4  0
 45 36  4  0
 56 47  4  0
 43 38  4  0
 54 49  4  0
  1 67  1  0
  2 68  1  0
  3 69  1  0
  8 70  1  0
 10 71  1  0
 11 72  1  0
 15 73  1  0
 16 74  1  0
 17 75  1  0
 18 76  1  0
 20 77  1  0
 24 78  1  0
 25 79  1  0
 26 80  1  0
 28 81  1  0
 30 82  1  0
 32 83  1  0
 37 84  1  0
 39 85  1  0
 40 86  1  0
 41 87  1  0
 42 88  1  0
 46 89  1  0
 48 90  1  0
 50 91  1  0
 51 92  1  0
 52 93  1  0
 53 94  1  0
 57 95  1  0
 58 96  1  0
 59 97  1  0
 61 98  1  0
 63 99  1  0
 65100  1  0
M  END
