
     RDKit          3D

100114  0  0  0  0  0  0  0  0999 V2000
  -12.4695    2.1762   -2.8144 C   0  0  0  0  0  0  0  0  0  0  0  0
  -12.0804    0.9068   -2.3925 C   0  0  0  0  0  0  0  0  0  0  0  0
  -10.9433    0.7460   -1.5805 C   0  0  0  0  0  0  0  0  0  0  0  0
  -10.5234   -0.5131   -1.1384 C   0  0  0  0  0  0  0  0  0  0  0  0
   -9.3863   -0.6307   -0.3314 C   0  0  0  0  0  0  0  0  0  0  0  0
   -8.9287   -1.8775    0.1354 C   0  0  0  0  0  0  0  0  0  0  0  0
   -7.8021   -1.9890    0.9345 C   0  0  0  0  0  0  0  0  0  0  0  0
   -7.4051   -3.2005    1.3552 N   0  0  0  0  0  0  0  0  0  0  0  0
   -6.3087   -3.3056    2.1267 C   0  0  0  0  0  0  0  0  0  0  0  0
   -5.9224   -4.5713    2.5414 C   0  0  0  0  0  0  0  0  0  0  0  0
   -4.7970   -4.7751    3.3387 C   0  0  0  0  0  0  0  0  0  0  0  0
   -4.0320   -3.6865    3.7371 C   0  0  0  0  0  0  0  0  0  0  0  0
   -4.3839   -2.3858    3.3427 C   0  0  0  0  0  0  0  0  0  0  0  0
   -3.5417   -1.2590    3.7952 C   0  0  0  0  0  0  0  0  0  0  0  0
   -3.8016   -0.7060    5.0629 C   0  0  0  0  0  0  0  0  0  0  0  0
   -3.0553    0.3644    5.5424 C   0  0  0  0  0  0  0  0  0  0  0  0
   -2.0363    0.9004    4.7609 C   0  0  0  0  0  0  0  0  0  0  0  0
   -1.7460    0.3748    3.4929 C   0  0  0  0  0  0  0  0  0  0  0  0
   -0.7150    0.9332    2.7185 C   0  0  0  0  0  0  0  0  0  0  0  0
   -0.3956    0.4354    1.4460 C   0  0  0  0  0  0  0  0  0  0  0  0
    0.6353    0.9971    0.6733 C   0  0  0  0  0  0  0  0  0  0  0  0
    0.9521    0.4971   -0.6010 C   0  0  0  0  0  0  0  0  0  0  0  0
    1.9812    1.0599   -1.3763 C   0  0  0  0  0  0  0  0  0  0  0  0
    2.3179    0.5703   -2.6608 C   0  0  0  0  0  0  0  0  0  0  0  0
    3.3546    1.1243   -3.4681 C   0  0  0  0  0  0  0  0  0  0  0  0
    4.1624    2.2835   -3.0346 C   0  0  0  0  0  0  0  0  0  0  0  0
    5.3805    2.1396   -2.3065 C   0  0  0  0  0  0  0  0  0  0  0  0
    5.9266    0.8986   -1.9216 C   0  0  0  0  0  0  0  0  0  0  0  0
    7.1286    0.8289   -1.2066 C   0  0  0  0  0  0  0  0  0  0  0  0
    7.6955   -0.3980   -0.8111 C   0  0  0  0  0  0  0  0  0  0  0  0
    8.8872   -0.4589   -0.1056 C   0  0  0  0  0  0  0  0  0  0  0  0
    9.3886   -1.6551    0.2459 N   0  0  0  0  0  0  0  0  0  0  0  0
   10.5450   -1.7074    0.9310 C   0  0  0  0  0  0  0  0  0  0  0  0
   11.0665   -2.9413    1.2969 C   0  0  0  0  0  0  0  0  0  0  0  0
   12.2645   -3.0525    2.0093 C   0  0  0  0  0  0  0  0  0  0  0  0
   12.9647   -1.9070    2.3688 C   0  0  0  0  0  0  0  0  0  0  0  0
   12.4642   -0.6561    2.0146 C   0  0  0  0  0  0  0  0  0  0  0  0
   11.2586   -0.5508    1.2979 C   0  0  0  0  0  0  0  0  0  0  0  0
   10.7267    0.6882    0.9256 C   0  0  0  0  0  0  0  0  0  0  0  0
    9.5242    0.7508    0.2128 C   0  0  0  0  0  0  0  0  0  0  0  0
    8.9557    1.9764   -0.1814 C   0  0  0  0  0  0  0  0  0  0  0  0
    7.7656    2.0349   -0.8885 C   0  0  0  0  0  0  0  0  0  0  0  0
    7.2659    3.2291   -1.2420 N   0  0  0  0  0  0  0  0  0  0  0  0
    6.1111    3.2854   -1.9279 C   0  0  0  0  0  0  0  0  0  0  0  0
    5.6225    4.5361   -2.2738 C   0  0  0  0  0  0  0  0  0  0  0  0
    4.4339    4.6932   -2.9844 C   0  0  0  0  0  0  0  0  0  0  0  0
    3.7087    3.5715   -3.3638 C   0  0  0  0  0  0  0  0  0  0  0  0
    3.6213    0.5673   -4.7325 C   0  0  0  0  0  0  0  0  0  0  0  0
    2.8891   -0.5159   -5.2055 C   0  0  0  0  0  0  0  0  0  0  0  0
    1.8740   -1.0576   -4.4228 C   0  0  0  0  0  0  0  0  0  0  0  0
    1.5773   -0.5290   -3.1575 C   0  0  0  0  0  0  0  0  0  0  0  0
    0.5457   -1.0889   -2.3841 C   0  0  0  0  0  0  0  0  0  0  0  0
    0.2236   -0.5901   -1.1124 C   0  0  0  0  0  0  0  0  0  0  0  0
   -0.8076   -1.1519   -0.3396 C   0  0  0  0  0  0  0  0  0  0  0  0
   -1.1255   -0.6507    0.9343 C   0  0  0  0  0  0  0  0  0  0  0  0
   -2.1571   -1.2098    1.7093 C   0  0  0  0  0  0  0  0  0  0  0  0
   -2.4943   -0.7174    2.9930 C   0  0  0  0  0  0  0  0  0  0  0  0
   -5.5387   -2.1942    2.5280 C   0  0  0  0  0  0  0  0  0  0  0  0
   -5.9803   -0.9347    2.0769 C   0  0  0  0  0  0  0  0  0  0  0  0
   -7.1179   -0.8147    1.2717 C   0  0  0  0  0  0  0  0  0  0  0  0
   -7.5737    0.4329    0.8058 C   0  0  0  0  0  0  0  0  0  0  0  0
   -8.7001    0.5461    0.0076 C   0  0  0  0  0  0  0  0  0  0  0  0
   -9.0931    1.7609   -0.4102 N   0  0  0  0  0  0  0  0  0  0  0  0
  -10.1867    1.8656   -1.1857 C   0  0  0  0  0  0  0  0  0  0  0  0
  -10.5969    3.1190   -1.6205 C   0  0  0  0  0  0  0  0  0  0  0  0
  -11.7263    3.2853   -2.4278 C   0  0  0  0  0  0  0  0  0  0  0  0
  -13.3486    2.2985   -3.4420 H   0  0  0  0  0  0  0  0  0  0  0  0
  -12.6671    0.0438   -2.6992 H   0  0  0  0  0  0  0  0  0  0  0  0
  -11.0818   -1.4021   -1.4225 H   0  0  0  0  0  0  0  0  0  0  0  0
   -9.4616   -2.7885   -0.1285 H   0  0  0  0  0  0  0  0  0  0  0  0
   -6.5182   -5.4279    2.2330 H   0  0  0  0  0  0  0  0  0  0  0  0
   -4.5217   -5.7808    3.6453 H   0  0  0  0  0  0  0  0  0  0  0  0
   -3.1522   -3.8500    4.3571 H   0  0  0  0  0  0  0  0  0  0  0  0
   -4.6008   -1.1127    5.6805 H   0  0  0  0  0  0  0  0  0  0  0  0
   -3.2687    0.7826    6.5227 H   0  0  0  0  0  0  0  0  0  0  0  0
   -1.4648    1.7396    5.1531 H   0  0  0  0  0  0  0  0  0  0  0  0
   -0.1499    1.7756    3.1142 H   0  0  0  0  0  0  0  0  0  0  0  0
    1.2021    1.8380    1.0703 H   0  0  0  0  0  0  0  0  0  0  0  0
    2.5342    1.9024   -0.9637 H   0  0  0  0  0  0  0  0  0  0  0  0
    5.4113   -0.0252   -2.1781 H   0  0  0  0  0  0  0  0  0  0  0  0
    7.1971   -1.3333   -1.0584 H   0  0  0  0  0  0  0  0  0  0  0  0
   10.5243   -3.8422    1.0193 H   0  0  0  0  0  0  0  0  0  0  0  0
   12.6439   -4.0344    2.2797 H   0  0  0  0  0  0  0  0  0  0  0  0
   13.8965   -1.9866    2.9228 H   0  0  0  0  0  0  0  0  0  0  0  0
   13.0173    0.2360    2.2993 H   0  0  0  0  0  0  0  0  0  0  0  0
   11.2490    1.6046    1.1907 H   0  0  0  0  0  0  0  0  0  0  0  0
    9.4506    2.9129    0.0666 H   0  0  0  0  0  0  0  0  0  0  0  0
    6.1869    5.4185   -1.9799 H   0  0  0  0  0  0  0  0  0  0  0  0
    4.0791    5.6882   -3.2391 H   0  0  0  0  0  0  0  0  0  0  0  0
    2.7801    3.6985   -3.9183 H   0  0  0  0  0  0  0  0  0  0  0  0
    4.4107    0.9849   -5.3555 H   0  0  0  0  0  0  0  0  0  0  0  0
    3.1072   -0.9359   -6.1840 H   0  0  0  0  0  0  0  0  0  0  0  0
    1.3106   -1.9037   -4.8114 H   0  0  0  0  0  0  0  0  0  0  0  0
   -0.0190   -1.9315   -2.7805 H   0  0  0  0  0  0  0  0  0  0  0  0
   -1.3717   -1.9948   -0.7359 H   0  0  0  0  0  0  0  0  0  0  0  0
   -2.7120   -2.0514    1.2970 H   0  0  0  0  0  0  0  0  0  0  0  0
   -5.4320   -0.0351    2.3506 H   0  0  0  0  0  0  0  0  0  0  0  0
   -7.0381    1.3427    1.0696 H   0  0  0  0  0  0  0  0  0  0  0  0
  -10.0198    3.9910   -1.3217 H   0  0  0  0  0  0  0  0  0  0  0  0
  -12.0194    4.2810   -2.7505 H   0  0  0  0  0  0  0  0  0  0  0  0
  1  2  4  0
  2  3  4  0
  3  4  4  0
  4  5  4  0
  5  6  4  0
  6  7  4  0
  7  8  4  0
  8  9  4  0
  9 10  4  0
 10 11  4  0
 11 12  4  0
 12 13  4  0
 13 14  1  0
 14 15  4  0
 15 16  4  0
 16 17  4  0
 17 18  4  0
 18 19  4  0
 19 20  4  0
 20 21  4  0
 21 22  4  0
 22 23  4  0
 23 24  4  0
 24 25  4  0
 25 26  1  0
 26 27  4  0
 27 28  4  0
 28 29  4  0
 29 30  4  0
 30 31  4  0
 31 32  4  0
 32 33  4  0
 33 34  4  0
 34 35  4  0
 35 36  4  0
 36 37  4  0
 37 38  4  0
 38 39  4  0
 39 40  4  0
 40 41  4  0
 41 42  4  0
 42 43  4  0
 43 44  4  0
 44 45  4  0
 45 46  4  0
 46 47  4  0
 25 48  4  0
 48 49  4  0
 49 50  4  0
 50 51  4  0
 51 52  4  0
 52 53  4  0
 53 54  4  0
 54 55  4  0
 55 56  4  0
 56 57  4  0
 13 58  4  0
 58 59  4  0
 59 60  4  0
 60 61  4  0
 61 62  4  0
 62 63  4  0
 63 64  4  0
 64 65  4  0
 65 66  4  0
 66  1  4  0
 64  3  4  0
 62  5  4  0
 60  7  4  0
 58  9  4  0
 57 14  4  0
 57 18  4  0
 55 20  4  0
 53 22  4  0
 51 24  4  0
 47 26  4  0
 44 27  4  0
 42 29  4  0
 40 31  4  0
 38 33  4  0
  1 67  1  0
  2 68  1  0
  4 69  1  0
  6 70  1  0
 10 71  1  0
 11 72  1  0
 12 73  1  0
 15 74  1  0
 16 75  1  0
 17 76  1  0
 19 77  1  0
 21 78  1  0
 23 79  1  0
 28 80  1  0
 30 81  1  0
 34 82  1  0
 35 83  1  0
 36 84  1  0
 37 85  1  0
 39 86  1  0
 41 87  1  0
 45 88  1  0
 46 89  1  0
 47 90  1  0
 48 91  1  0
 49 92  1  0
 50 93  1  0
 52 94  1  0
 54 95  1  0
 56 96  1  0
 59 97  1  0
 61 98  1  0
 65 99  1  0
 66100  1  0
M  END
