
     RDKit          3D

100114  0  0  0  0  0  0  0  0999 V2000
   15.0114    1.9741   -2.1804 C   0  0  0  0  0  0  0  0  0  0  0  0
   13.8163    1.2905   -2.3933 C   0  0  0  0  0  0  0  0  0  0  0  0
   12.9605    1.0029   -1.3146 C   0  0  0  0  0  0  0  0  0  0  0  0
   11.7530    0.3188   -1.4912 C   0  0  0  0  0  0  0  0  0  0  0  0
   10.9294    0.0521   -0.3917 C   0  0  0  0  0  0  0  0  0  0  0  0
    9.7066   -0.6320   -0.5246 C   0  0  0  0  0  0  0  0  0  0  0  0
    8.8937   -0.8926    0.5669 C   0  0  0  0  0  0  0  0  0  0  0  0
    7.7348   -1.5471    0.3848 N   0  0  0  0  0  0  0  0  0  0  0  0
    6.9461   -1.7958    1.4451 C   0  0  0  0  0  0  0  0  0  0  0  0
    5.7457   -2.4671    1.2568 C   0  0  0  0  0  0  0  0  0  0  0  0
    4.8671   -2.7462    2.3178 C   0  0  0  0  0  0  0  0  0  0  0  0
    3.5955   -3.4473    2.0760 C   0  0  0  0  0  0  0  0  0  0  0  0
    3.5237   -4.8178    2.3862 C   0  0  0  0  0  0  0  0  0  0  0  0
    2.3536   -5.5393    2.1759 C   0  0  0  0  0  0  0  0  0  0  0  0
    1.2340   -4.9011    1.6511 C   0  0  0  0  0  0  0  0  0  0  0  0
    1.2656   -3.5356    1.3309 C   0  0  0  0  0  0  0  0  0  0  0  0
    0.1232   -2.9102    0.8026 C   0  0  0  0  0  0  0  0  0  0  0  0
    0.1149   -1.5465    0.4715 C   0  0  0  0  0  0  0  0  0  0  0  0
   -1.0282   -0.9238   -0.0587 C   0  0  0  0  0  0  0  0  0  0  0  0
   -1.0329    0.4419   -0.3904 C   0  0  0  0  0  0  0  0  0  0  0  0
   -2.1748    1.0673   -0.9227 C   0  0  0  0  0  0  0  0  0  0  0  0
   -2.1990    2.4409   -1.2653 C   0  0  0  0  0  0  0  0  0  0  0  0
   -3.3410    3.0987   -1.8100 C   0  0  0  0  0  0  0  0  0  0  0  0
   -4.6040    2.3949   -2.0832 C   0  0  0  0  0  0  0  0  0  0  0  0
   -4.7940    1.7109   -3.2886 C   0  0  0  0  0  0  0  0  0  0  0  0
   -5.9978    1.0551   -3.5418 C   0  0  0  0  0  0  0  0  0  0  0  0
   -7.0298    1.0789   -2.5895 C   0  0  0  0  0  0  0  0  0  0  0  0
   -8.2510    0.4325   -2.8095 C   0  0  0  0  0  0  0  0  0  0  0  0
   -9.2556    0.4785   -1.8364 C   0  0  0  0  0  0  0  0  0  0  0  0
  -10.4978   -0.1588   -2.0164 C   0  0  0  0  0  0  0  0  0  0  0  0
  -11.4900   -0.1117   -1.0501 C   0  0  0  0  0  0  0  0  0  0  0  0
  -12.6576   -0.7382   -1.2724 N   0  0  0  0  0  0  0  0  0  0  0  0
  -13.6179   -0.6904   -0.3316 C   0  0  0  0  0  0  0  0  0  0  0  0
  -14.8264   -1.3367   -0.5562 C   0  0  0  0  0  0  0  0  0  0  0  0
  -15.8581   -1.3190    0.3875 C   0  0  0  0  0  0  0  0  0  0  0  0
  -15.6857   -0.6407    1.5884 C   0  0  0  0  0  0  0  0  0  0  0  0
  -14.4831    0.0163    1.8398 C   0  0  0  0  0  0  0  0  0  0  0  0
  -13.4489   -0.0052    0.8864 C   0  0  0  0  0  0  0  0  0  0  0  0
  -12.2285    0.6431    1.1052 C   0  0  0  0  0  0  0  0  0  0  0  0
  -11.2241    0.5980    0.1316 C   0  0  0  0  0  0  0  0  0  0  0  0
   -9.9819    1.2356    0.3112 C   0  0  0  0  0  0  0  0  0  0  0  0
   -8.9897    1.1880   -0.6550 C   0  0  0  0  0  0  0  0  0  0  0  0
   -7.8213    1.8132   -0.4335 N   0  0  0  0  0  0  0  0  0  0  0  0
   -6.8592    1.7639   -1.3724 C   0  0  0  0  0  0  0  0  0  0  0  0
   -5.6498    2.4079   -1.1445 C   0  0  0  0  0  0  0  0  0  0  0  0
   -3.2723    4.4719   -2.1091 C   0  0  0  0  0  0  0  0  0  0  0  0
   -2.1063    5.1957   -1.8864 C   0  0  0  0  0  0  0  0  0  0  0  0
   -0.9876    4.5571   -1.3608 C   0  0  0  0  0  0  0  0  0  0  0  0
   -1.0177    3.1900   -1.0470 C   0  0  0  0  0  0  0  0  0  0  0  0
    0.1231    2.5648   -0.5156 C   0  0  0  0  0  0  0  0  0  0  0  0
    0.1313    1.2009   -0.1855 C   0  0  0  0  0  0  0  0  0  0  0  0
    1.2744    0.5785    0.3452 C   0  0  0  0  0  0  0  0  0  0  0  0
    1.2789   -0.7872    0.6761 C   0  0  0  0  0  0  0  0  0  0  0  0
    2.4213   -1.4122    1.2068 C   0  0  0  0  0  0  0  0  0  0  0  0
    2.4492   -2.7880    1.5411 C   0  0  0  0  0  0  0  0  0  0  0  0
    5.2271   -2.3433    3.6081 C   0  0  0  0  0  0  0  0  0  0  0  0
    6.4301   -1.6733    3.8256 C   0  0  0  0  0  0  0  0  0  0  0  0
    7.2888   -1.3958    2.7497 C   0  0  0  0  0  0  0  0  0  0  0  0
    8.4996   -0.7181    2.9277 C   0  0  0  0  0  0  0  0  0  0  0  0
    9.3245   -0.4537    1.8287 C   0  0  0  0  0  0  0  0  0  0  0  0
   10.5478    0.2294    1.9619 C   0  0  0  0  0  0  0  0  0  0  0  0
   11.3597    0.4917    0.8703 C   0  0  0  0  0  0  0  0  0  0  0  0
   12.5161    1.1497    1.0531 N   0  0  0  0  0  0  0  0  0  0  0  0
   13.3023    1.4025   -0.0087 C   0  0  0  0  0  0  0  0  0  0  0  0
   14.4992    2.0822    0.1750 C   0  0  0  0  0  0  0  0  0  0  0  0
   15.3542    2.3711   -0.8932 C   0  0  0  0  0  0  0  0  0  0  0  0
   15.6715    2.1954   -3.0152 H   0  0  0  0  0  0  0  0  0  0  0  0
   13.5548    0.9830   -3.4033 H   0  0  0  0  0  0  0  0  0  0  0  0
   11.4544   -0.0063   -2.4852 H   0  0  0  0  0  0  0  0  0  0  0  0
    9.3746   -0.9717   -1.5034 H   0  0  0  0  0  0  0  0  0  0  0  0
    5.4825   -2.7771    0.2467 H   0  0  0  0  0  0  0  0  0  0  0  0
    4.3940   -5.3313    2.7914 H   0  0  0  0  0  0  0  0  0  0  0  0
    2.3149   -6.5982    2.4175 H   0  0  0  0  0  0  0  0  0  0  0  0
    0.3285   -5.4833    1.4920 H   0  0  0  0  0  0  0  0  0  0  0  0
   -0.7793   -3.4986    0.6447 H   0  0  0  0  0  0  0  0  0  0  0  0
   -1.9302   -1.5124   -0.2163 H   0  0  0  0  0  0  0  0  0  0  0  0
   -3.0703    0.4653   -1.0699 H   0  0  0  0  0  0  0  0  0  0  0  0
   -4.0018    1.6877   -4.0349 H   0  0  0  0  0  0  0  0  0  0  0  0
   -6.1256    0.5284   -4.4847 H   0  0  0  0  0  0  0  0  0  0  0  0
   -8.4203   -0.1072   -3.7385 H   0  0  0  0  0  0  0  0  0  0  0  0
  -10.7016   -0.7085   -2.9330 H   0  0  0  0  0  0  0  0  0  0  0  0
  -14.9685   -1.8696   -1.4934 H   0  0  0  0  0  0  0  0  0  0  0  0
  -16.7914   -1.8357    0.1791 H   0  0  0  0  0  0  0  0  0  0  0  0
  -16.4835   -0.6230    2.3264 H   0  0  0  0  0  0  0  0  0  0  0  0
  -14.3549    0.5449    2.7816 H   0  0  0  0  0  0  0  0  0  0  0  0
  -12.0599    1.1830    2.0342 H   0  0  0  0  0  0  0  0  0  0  0  0
   -9.7776    1.7850    1.2279 H   0  0  0  0  0  0  0  0  0  0  0  0
   -5.5169    2.9363   -0.2018 H   0  0  0  0  0  0  0  0  0  0  0  0
   -4.1403    4.9824   -2.5232 H   0  0  0  0  0  0  0  0  0  0  0  0
   -2.0690    6.2558   -2.1228 H   0  0  0  0  0  0  0  0  0  0  0  0
   -0.0843    5.1407   -1.1942 H   0  0  0  0  0  0  0  0  0  0  0  0
    1.0260    3.1518   -0.3543 H   0  0  0  0  0  0  0  0  0  0  0  0
    2.1776    1.1662    0.5023 H   0  0  0  0  0  0  0  0  0  0  0  0
    3.3125   -0.8060    1.3624 H   0  0  0  0  0  0  0  0  0  0  0  0
    4.5658   -2.5442    4.4487 H   0  0  0  0  0  0  0  0  0  0  0  0
    6.6895   -1.3662    4.8362 H   0  0  0  0  0  0  0  0  0  0  0  0
    8.7996   -0.3937    3.9217 H   0  0  0  0  0  0  0  0  0  0  0  0
   10.8808    0.5690    2.9406 H   0  0  0  0  0  0  0  0  0  0  0  0
   14.7740    2.3960    1.1793 H   0  0  0  0  0  0  0  0  0  0  0  0
   16.2837    2.9051   -0.7136 H   0  0  0  0  0  0  0  0  0  0  0  0
  1  2  4  0
  2  3  4  0
  3  4  4  0
  4  5  4  0
  5  6  4  0
  6  7  4  0
  7  8  4  0
  8  9  4  0
  9 10  4  0
 10 11  4  0
 11 12  1  0
 12 13  4  0
 13 14  4  0
 14 15  4  0
 15 16  4  0
 16 17  4  0
 17 18  4  0
 18 19  4  0
 19 20  4  0
 20 21  4  0
 21 22  4  0
 22 23  4  0
 23 24  1  0
 24 25  4  0
 25 26  4  0
 26 27  4  0
 27 28  4  0
 28 29  4  0
 29 30  4  0
 30 31  4  0
 31 32  4  0
 32 33  4  0
 33 34  4  0
 34 35  4  0
 35 36  4  0
 36 37  4  0
 37 38  4  0
 38 39  4  0
 39 40  4  0
 40 41  4  0
 41 42  4  0
 42 43  4  0
 43 44  4  0
 44 45  4  0
 23 46  4  0
 46 47  4  0
 47 48  4  0
 48 49  4  0
 49 50  4  0
 50 51  4  0
 51 52  4  0
 52 53  4  0
 53 54  4  0
 54 55  4  0
 11 56  4  0
 56 57  4  0
 57 58  4  0
 58 59  4  0
 59 60  4  0
 60 61  4  0
 61 62  4  0
 62 63  4  0
 63 64  4  0
 64 65  4  0
 65 66  4  0
 66  1  4  0
 64  3  4  0
 62  5  4  0
 60  7  4  0
 58  9  4  0
 55 12  4  0
 55 16  4  0
 53 18  4  0
 51 20  4  0
 49 22  4  0
 45 24  4  0
 44 27  4  0
 42 29  4  0
 40 31  4  0
 38 33  4  0
  1 67  1  0
  2 68  1  0
  4 69  1  0
  6 70  1  0
 10 71  1  0
 13 72  1  0
 14 73  1  0
 15 74  1  0
 17 75  1  0
 19 76  1  0
 21 77  1  0
 25 78  1  0
 26 79  1  0
 28 80  1  0
 30 81  1  0
 34 82  1  0
 35 83  1  0
 36 84  1  0
 37 85  1  0
 39 86  1  0
 41 87  1  0
 45 88  1  0
 46 89  1  0
 47 90  1  0
 48 91  1  0
 50 92  1  0
 52 93  1  0
 54 94  1  0
 56 95  1  0
 57 96  1  0
 59 97  1  0
 61 98  1  0
 65 99  1  0
 66100  1  0
M  END
