
     RDKit          3D

100114  0  0  0  0  0  0  0  0999 V2000
    5.7336   -6.6341    2.7845 C   0  0  0  0  0  0  0  0  0  0  0  0
    6.6085   -7.1216    1.8207 C   0  0  0  0  0  0  0  0  0  0  0  0
    7.1032   -6.2651    0.8325 C   0  0  0  0  0  0  0  0  0  0  0  0
    6.7451   -4.9245    0.7805 C   0  0  0  0  0  0  0  0  0  0  0  0
    7.2496   -4.1435   -0.1914 N   0  0  0  0  0  0  0  0  0  0  0  0
    6.8993   -2.8476   -0.2374 C   0  0  0  0  0  0  0  0  0  0  0  0
    7.4137   -2.0396   -1.2386 C   0  0  0  0  0  0  0  0  0  0  0  0
    7.0764   -0.6766   -1.3363 C   0  0  0  0  0  0  0  0  0  0  0  0
    7.5813    0.1456   -2.3481 C   0  0  0  0  0  0  0  0  0  0  0  0
    7.2085    1.4930   -2.4158 C   0  0  0  0  0  0  0  0  0  0  0  0
    7.6987    2.3231   -3.4372 C   0  0  0  0  0  0  0  0  0  0  0  0
    7.3159    3.6568   -3.5051 C   0  0  0  0  0  0  0  0  0  0  0  0
    6.4428    4.1654   -2.5511 C   0  0  0  0  0  0  0  0  0  0  0  0
    5.9435    3.3477   -1.5168 C   0  0  0  0  0  0  0  0  0  0  0  0
    5.0199    3.9479   -0.5276 C   0  0  0  0  0  0  0  0  0  0  0  0
    5.5702    4.7493    0.4910 C   0  0  0  0  0  0  0  0  0  0  0  0
    4.7589    5.3564    1.4432 C   0  0  0  0  0  0  0  0  0  0  0  0
    3.3806    5.1735    1.3930 C   0  0  0  0  0  0  0  0  0  0  0  0
    2.7933    4.3819    0.3947 C   0  0  0  0  0  0  0  0  0  0  0  0
    1.3986    4.2104    0.3627 C   0  0  0  0  0  0  0  0  0  0  0  0
    0.7738    3.4261   -0.6192 C   0  0  0  0  0  0  0  0  0  0  0  0
   -0.6211    3.2552   -0.6503 C   0  0  0  0  0  0  0  0  0  0  0  0
   -1.2428    2.4668   -1.6342 C   0  0  0  0  0  0  0  0  0  0  0  0
   -2.6384    2.2956   -1.6705 C   0  0  0  0  0  0  0  0  0  0  0  0
   -3.2818    1.5073   -2.6550 C   0  0  0  0  0  0  0  0  0  0  0  0
   -4.6944    1.3238   -2.7195 C   0  0  0  0  0  0  0  0  0  0  0  0
   -5.6232    1.9785   -1.7725 C   0  0  0  0  0  0  0  0  0  0  0  0
   -6.0243    3.3049   -2.0349 C   0  0  0  0  0  0  0  0  0  0  0  0
   -6.8982    3.9674   -1.1821 C   0  0  0  0  0  0  0  0  0  0  0  0
   -7.3832    3.3096   -0.0585 C   0  0  0  0  0  0  0  0  0  0  0  0
   -6.9958    1.9874    0.2164 C   0  0  0  0  0  0  0  0  0  0  0  0
   -7.4832    1.3202    1.3464 C   0  0  0  0  0  0  0  0  0  0  0  0
   -7.0930    0.0045    1.6140 C   0  0  0  0  0  0  0  0  0  0  0  0
   -7.5607   -0.7025    2.7385 C   0  0  0  0  0  0  0  0  0  0  0  0
   -7.1681   -2.0064    2.9969 C   0  0  0  0  0  0  0  0  0  0  0  0
   -7.6438   -2.6367    4.0844 N   0  0  0  0  0  0  0  0  0  0  0  0
   -7.2578   -3.9017    4.3307 C   0  0  0  0  0  0  0  0  0  0  0  0
   -7.7453   -4.5583    5.4532 C   0  0  0  0  0  0  0  0  0  0  0  0
   -7.3767   -5.8728    5.7564 C   0  0  0  0  0  0  0  0  0  0  0  0
   -6.4993   -6.5551    4.9218 C   0  0  0  0  0  0  0  0  0  0  0  0
   -5.9949   -5.9203    3.7888 C   0  0  0  0  0  0  0  0  0  0  0  0
   -6.3694   -4.5981    3.4893 C   0  0  0  0  0  0  0  0  0  0  0  0
   -5.8821   -3.9305    2.3606 C   0  0  0  0  0  0  0  0  0  0  0  0
   -6.2784   -2.6147    2.0972 C   0  0  0  0  0  0  0  0  0  0  0  0
   -5.8121   -1.9069    0.9734 C   0  0  0  0  0  0  0  0  0  0  0  0
   -6.2071   -0.6040    0.7164 C   0  0  0  0  0  0  0  0  0  0  0  0
   -5.7356    0.0268   -0.3703 N   0  0  0  0  0  0  0  0  0  0  0  0
   -6.1080    1.2995   -0.6380 C   0  0  0  0  0  0  0  0  0  0  0  0
   -5.2408    0.5094   -3.7292 C   0  0  0  0  0  0  0  0  0  0  0  0
   -4.4257   -0.1137   -4.6677 C   0  0  0  0  0  0  0  0  0  0  0  0
   -3.0478    0.0696   -4.6136 C   0  0  0  0  0  0  0  0  0  0  0  0
   -2.4648    0.8707   -3.6202 C   0  0  0  0  0  0  0  0  0  0  0  0
   -1.0707    1.0406   -3.5830 C   0  0  0  0  0  0  0  0  0  0  0  0
   -0.4501    1.8323   -2.6049 C   0  0  0  0  0  0  0  0  0  0  0  0
    0.9443    2.0026   -2.5734 C   0  0  0  0  0  0  0  0  0  0  0  0
    1.5645    2.7955   -1.5933 C   0  0  0  0  0  0  0  0  0  0  0  0
    2.9591    2.9701   -1.5635 C   0  0  0  0  0  0  0  0  0  0  0  0
    3.6070    3.7563   -0.5807 C   0  0  0  0  0  0  0  0  0  0  0  0
    6.3245    1.9944   -1.4365 C   0  0  0  0  0  0  0  0  0  0  0  0
    5.8508    1.1935   -0.4563 N   0  0  0  0  0  0  0  0  0  0  0  0
    6.2043   -0.0985   -0.4057 C   0  0  0  0  0  0  0  0  0  0  0  0
    5.6901   -0.9035    0.5970 C   0  0  0  0  0  0  0  0  0  0  0  0
    6.0229   -2.2666    0.6931 C   0  0  0  0  0  0  0  0  0  0  0  0
    5.5025   -3.0855    1.7008 C   0  0  0  0  0  0  0  0  0  0  0  0
    5.8586   -4.4367    1.7596 C   0  0  0  0  0  0  0  0  0  0  0  0
    5.3575   -5.2933    2.7561 C   0  0  0  0  0  0  0  0  0  0  0  0
    5.3454   -7.2946    3.5553 H   0  0  0  0  0  0  0  0  0  0  0  0
    6.9097   -8.1658    1.8319 H   0  0  0  0  0  0  0  0  0  0  0  0
    7.7875   -6.6544    0.0823 H   0  0  0  0  0  0  0  0  0  0  0  0
    8.0921   -2.4880   -1.9612 H   0  0  0  0  0  0  0  0  0  0  0  0
    8.2622   -0.2680   -3.0891 H   0  0  0  0  0  0  0  0  0  0  0  0
    8.3804    1.9315   -4.1894 H   0  0  0  0  0  0  0  0  0  0  0  0
    7.6933    4.2970   -4.2981 H   0  0  0  0  0  0  0  0  0  0  0  0
    6.1382    5.2090   -2.6091 H   0  0  0  0  0  0  0  0  0  0  0  0
    6.6476    4.8933    0.5459 H   0  0  0  0  0  0  0  0  0  0  0  0
    5.2003    5.9675    2.2255 H   0  0  0  0  0  0  0  0  0  0  0  0
    2.7636    5.6559    2.1482 H   0  0  0  0  0  0  0  0  0  0  0  0
    0.7853    4.6955    1.1201 H   0  0  0  0  0  0  0  0  0  0  0  0
   -1.2339    3.7442    0.1047 H   0  0  0  0  0  0  0  0  0  0  0  0
   -3.2380    2.7851   -0.9049 H   0  0  0  0  0  0  0  0  0  0  0  0
   -5.6435    3.8196   -2.9158 H   0  0  0  0  0  0  0  0  0  0  0  0
   -7.1998    4.9898   -1.3935 H   0  0  0  0  0  0  0  0  0  0  0  0
   -8.0681    3.8341    0.6045 H   0  0  0  0  0  0  0  0  0  0  0  0
   -8.1697    1.8262    2.0218 H   0  0  0  0  0  0  0  0  0  0  0  0
   -8.2495   -0.2279    3.4341 H   0  0  0  0  0  0  0  0  0  0  0  0
   -8.4321   -4.0309    6.1112 H   0  0  0  0  0  0  0  0  0  0  0  0
   -7.7772   -6.3567    6.6436 H   0  0  0  0  0  0  0  0  0  0  0  0
   -6.2085   -7.5769    5.1516 H   0  0  0  0  0  0  0  0  0  0  0  0
   -5.3085   -6.4598    3.1402 H   0  0  0  0  0  0  0  0  0  0  0  0
   -5.1934   -4.4348    1.6866 H   0  0  0  0  0  0  0  0  0  0  0  0
   -5.1221   -2.3786    0.2766 H   0  0  0  0  0  0  0  0  0  0  0  0
   -6.3172    0.3555   -3.7775 H   0  0  0  0  0  0  0  0  0  0  0  0
   -4.8643   -0.7426   -5.4374 H   0  0  0  0  0  0  0  0  0  0  0  0
   -2.4252   -0.4258   -5.3559 H   0  0  0  0  0  0  0  0  0  0  0  0
   -0.4538    0.5455   -4.3312 H   0  0  0  0  0  0  0  0  0  0  0  0
    1.5597    1.5064   -3.3218 H   0  0  0  0  0  0  0  0  0  0  0  0
    3.5553    2.4692   -2.3237 H   0  0  0  0  0  0  0  0  0  0  0  0
    5.0091   -0.4524    1.3162 H   0  0  0  0  0  0  0  0  0  0  0  0
    4.8199   -2.6707    2.4389 H   0  0  0  0  0  0  0  0  0  0  0  0
    4.6725   -4.9190    3.5135 H   0  0  0  0  0  0  0  0  0  0  0  0
  1  2  4  0
  2  3  4  0
  3  4  4  0
  4  5  4  0
  5  6  4  0
  6  7  4  0
  7  8  4  0
  8  9  4  0
  9 10  4  0
 10 11  4  0
 11 12  4  0
 12 13  4  0
 13 14  4  0
 14 15  1  0
 15 16  4  0
 16 17  4  0
 17 18  4  0
 18 19  4  0
 19 20  4  0
 20 21  4  0
 21 22  4  0
 22 23  4  0
 23 24  4  0
 24 25  4  0
 25 26  4  0
 26 27  1  0
 27 28  4  0
 28 29  4  0
 29 30  4  0
 30 31  4  0
 31 32  4  0
 32 33  4  0
 33 34  4  0
 34 35  4  0
 35 36  4  0
 36 37  4  0
 37 38  4  0
 38 39  4  0
 39 40  4  0
 40 41  4  0
 41 42  4  0
 42 43  4  0
 43 44  4  0
 44 45  4  0
 45 46  4  0
 46 47  4  0
 47 48  4  0
 26 49  4  0
 49 50  4  0
 50 51  4  0
 51 52  4  0
 52 53  4  0
 53 54  4  0
 54 55  4  0
 55 56  4  0
 56 57  4  0
 57 58  4  0
 14 59  4  0
 59 60  4  0
 60 61  4  0
 61 62  4  0
 62 63  4  0
 63 64  4  0
 64 65  4  0
 65 66  4  0
 66  1  4  0
 65  4  4  0
 63  6  4  0
 61  8  4  0
 59 10  4  0
 58 15  4  0
 58 19  4  0
 56 21  4  0
 54 23  4  0
 52 25  4  0
 48 27  4  0
 48 31  4  0
 46 33  4  0
 44 35  4  0
 42 37  4  0
  1 67  1  0
  2 68  1  0
  3 69  1  0
  7 70  1  0
  9 71  1  0
 11 72  1  0
 12 73  1  0
 13 74  1  0
 16 75  1  0
 17 76  1  0
 18 77  1  0
 20 78  1  0
 22 79  1  0
 24 80  1  0
 28 81  1  0
 29 82  1  0
 30 83  1  0
 32 84  1  0
 34 85  1  0
 38 86  1  0
 39 87  1  0
 40 88  1  0
 41 89  1  0
 43 90  1  0
 45 91  1  0
 49 92  1  0
 50 93  1  0
 51 94  1  0
 53 95  1  0
 55 96  1  0
 57 97  1  0
 62 98  1  0
 64 99  1  0
 66100  1  0
M  END
