
     RDKit          3D

100114  0  0  0  0  0  0  0  0999 V2000
    6.4391   -5.6743    1.5755 C   0  0  0  0  0  0  0  0  0  0  0  0
    7.4418   -5.1936    2.4094 C   0  0  0  0  0  0  0  0  0  0  0  0
    7.8628   -3.8652    2.2954 C   0  0  0  0  0  0  0  0  0  0  0  0
    7.3053   -2.9987    1.3639 C   0  0  0  0  0  0  0  0  0  0  0  0
    7.7424   -1.7306    1.2913 N   0  0  0  0  0  0  0  0  0  0  0  0
    7.2014   -0.8947    0.3900 C   0  0  0  0  0  0  0  0  0  0  0  0
    7.6756    0.4020    0.3479 C   0  0  0  0  0  0  0  0  0  0  0  0
    7.1688    1.3542   -0.5484 C   0  0  0  0  0  0  0  0  0  0  0  0
    7.6666    2.6634   -0.5615 C   0  0  0  0  0  0  0  0  0  0  0  0
    7.1467    3.6078   -1.4507 C   0  0  0  0  0  0  0  0  0  0  0  0
    7.6166    4.9333   -1.4949 C   0  0  0  0  0  0  0  0  0  0  0  0
    7.0665    5.8438   -2.3946 C   0  0  0  0  0  0  0  0  0  0  0  0
    6.0490    5.4342   -3.2487 C   0  0  0  0  0  0  0  0  0  0  0  0
    5.5888    4.1151   -3.1994 C   0  0  0  0  0  0  0  0  0  0  0  0
    6.1221    3.1889   -2.3135 C   0  0  0  0  0  0  0  0  0  0  0  0
    5.6482    1.9325   -2.3065 N   0  0  0  0  0  0  0  0  0  0  0  0
    6.1462    1.0145   -1.4484 C   0  0  0  0  0  0  0  0  0  0  0  0
    5.6533   -0.3055   -1.4217 C   0  0  0  0  0  0  0  0  0  0  0  0
    4.5615   -0.6841   -2.3553 C   0  0  0  0  0  0  0  0  0  0  0  0
    4.9088   -1.1284   -3.6449 C   0  0  0  0  0  0  0  0  0  0  0  0
    3.9309   -1.5110   -4.5563 C   0  0  0  0  0  0  0  0  0  0  0  0
    2.5886   -1.4561   -4.1929 C   0  0  0  0  0  0  0  0  0  0  0  0
    2.2029   -1.0152   -2.9180 C   0  0  0  0  0  0  0  0  0  0  0  0
    0.8423   -0.9640   -2.5706 C   0  0  0  0  0  0  0  0  0  0  0  0
    0.4212   -0.5240   -1.3064 C   0  0  0  0  0  0  0  0  0  0  0  0
   -0.9393   -0.4682   -0.9619 C   0  0  0  0  0  0  0  0  0  0  0  0
   -1.3574   -0.0134    0.2999 C   0  0  0  0  0  0  0  0  0  0  0  0
   -2.7188    0.0584    0.6403 C   0  0  0  0  0  0  0  0  0  0  0  0
   -3.1640    0.5362    1.8961 C   0  0  0  0  0  0  0  0  0  0  0  0
   -4.5410    0.6523    2.2538 C   0  0  0  0  0  0  0  0  0  0  0  0
   -5.6412    0.3074    1.3138 C   0  0  0  0  0  0  0  0  0  0  0  0
   -6.2960   -0.9332    1.4534 C   0  0  0  0  0  0  0  0  0  0  0  0
   -5.9464   -1.8086    2.4228 N   0  0  0  0  0  0  0  0  0  0  0  0
   -6.5799   -2.9870    2.5410 C   0  0  0  0  0  0  0  0  0  0  0  0
   -6.2015   -3.8692    3.5441 C   0  0  0  0  0  0  0  0  0  0  0  0
   -6.8303   -5.1066    3.7108 C   0  0  0  0  0  0  0  0  0  0  0  0
   -7.8632   -5.4773    2.8575 C   0  0  0  0  0  0  0  0  0  0  0  0
   -8.2607   -4.6098    1.8425 C   0  0  0  0  0  0  0  0  0  0  0  0
   -7.6222   -3.3665    1.6815 C   0  0  0  0  0  0  0  0  0  0  0  0
   -7.9884   -2.4675    0.6768 C   0  0  0  0  0  0  0  0  0  0  0  0
   -7.3279   -1.2390    0.5512 C   0  0  0  0  0  0  0  0  0  0  0  0
   -7.6883   -0.3325   -0.4560 C   0  0  0  0  0  0  0  0  0  0  0  0
   -7.0596    0.8876   -0.6071 C   0  0  0  0  0  0  0  0  0  0  0  0
   -7.4727    1.6840   -1.6070 N   0  0  0  0  0  0  0  0  0  0  0  0
   -6.8799    2.8753   -1.7906 C   0  0  0  0  0  0  0  0  0  0  0  0
   -7.2962    3.6973   -2.8298 C   0  0  0  0  0  0  0  0  0  0  0  0
   -6.7070    4.9438   -3.0631 C   0  0  0  0  0  0  0  0  0  0  0  0
   -5.6768    5.3860   -2.2415 C   0  0  0  0  0  0  0  0  0  0  0  0
   -5.2425    4.5804   -1.1916 C   0  0  0  0  0  0  0  0  0  0  0  0
   -5.8408    3.3281   -0.9638 C   0  0  0  0  0  0  0  0  0  0  0  0
   -5.4299    2.4892    0.0779 C   0  0  0  0  0  0  0  0  0  0  0  0
   -6.0275    1.2271    0.2831 C   0  0  0  0  0  0  0  0  0  0  0  0
   -4.8847    1.1294    3.5331 C   0  0  0  0  0  0  0  0  0  0  0  0
   -3.9044    1.4967    4.4480 C   0  0  0  0  0  0  0  0  0  0  0  0
   -2.5614    1.3986    4.0977 C   0  0  0  0  0  0  0  0  0  0  0  0
   -2.1775    0.9252    2.8343 C   0  0  0  0  0  0  0  0  0  0  0  0
   -0.8154    0.8422    2.4985 C   0  0  0  0  0  0  0  0  0  0  0  0
   -0.3940    0.3856    1.2408 C   0  0  0  0  0  0  0  0  0  0  0  0
    0.9669    0.3222    0.8996 C   0  0  0  0  0  0  0  0  0  0  0  0
    1.3842   -0.1244   -0.3652 C   0  0  0  0  0  0  0  0  0  0  0  0
    2.7442   -0.1763   -0.7123 C   0  0  0  0  0  0  0  0  0  0  0  0
    3.1869   -0.6190   -1.9813 C   0  0  0  0  0  0  0  0  0  0  0  0
    6.1822   -1.2677   -0.5010 C   0  0  0  0  0  0  0  0  0  0  0  0
    5.7409   -2.6052   -0.4084 C   0  0  0  0  0  0  0  0  0  0  0  0
    6.2938   -3.4898    0.5245 C   0  0  0  0  0  0  0  0  0  0  0  0
    5.8639   -4.8249    0.6331 C   0  0  0  0  0  0  0  0  0  0  0  0
    6.1053   -6.7053    1.6583 H   0  0  0  0  0  0  0  0  0  0  0  0
    7.8989   -5.8455    3.1493 H   0  0  0  0  0  0  0  0  0  0  0  0
    8.6472   -3.4949    2.9512 H   0  0  0  0  0  0  0  0  0  0  0  0
    8.4663    0.6771    1.0440 H   0  0  0  0  0  0  0  0  0  0  0  0
    8.4598    2.9502    0.1256 H   0  0  0  0  0  0  0  0  0  0  0  0
    8.4117    5.2605   -0.8290 H   0  0  0  0  0  0  0  0  0  0  0  0
    7.4298    6.8677   -2.4285 H   0  0  0  0  0  0  0  0  0  0  0  0
    5.6099    6.1341   -3.9548 H   0  0  0  0  0  0  0  0  0  0  0  0
    4.7918    3.7993   -3.8689 H   0  0  0  0  0  0  0  0  0  0  0  0
    5.9549   -1.1671   -3.9430 H   0  0  0  0  0  0  0  0  0  0  0  0
    4.2143   -1.8460   -5.5504 H   0  0  0  0  0  0  0  0  0  0  0  0
    1.8373   -1.7562   -4.9203 H   0  0  0  0  0  0  0  0  0  0  0  0
    0.0930   -1.2682   -3.2998 H   0  0  0  0  0  0  0  0  0  0  0  0
   -1.6863   -0.7774   -1.6907 H   0  0  0  0  0  0  0  0  0  0  0  0
   -3.4492   -0.2647   -0.0991 H   0  0  0  0  0  0  0  0  0  0  0  0
   -5.3929   -3.5836    4.2131 H   0  0  0  0  0  0  0  0  0  0  0  0
   -6.5092   -5.7743    4.5060 H   0  0  0  0  0  0  0  0  0  0  0  0
   -8.3565   -6.4378    2.9813 H   0  0  0  0  0  0  0  0  0  0  0  0
   -9.0688   -4.9062    1.1778 H   0  0  0  0  0  0  0  0  0  0  0  0
   -8.7914   -2.7259   -0.0103 H   0  0  0  0  0  0  0  0  0  0  0  0
   -8.4876   -0.5821   -1.1520 H   0  0  0  0  0  0  0  0  0  0  0  0
   -8.1011    3.3568   -3.4766 H   0  0  0  0  0  0  0  0  0  0  0  0
   -7.0559    5.5622   -3.8859 H   0  0  0  0  0  0  0  0  0  0  0  0
   -5.2120    6.3528   -2.4163 H   0  0  0  0  0  0  0  0  0  0  0  0
   -4.4336    4.9290   -0.5532 H   0  0  0  0  0  0  0  0  0  0  0  0
   -4.6269    2.8248    0.7314 H   0  0  0  0  0  0  0  0  0  0  0  0
   -5.9317    1.2072    3.8204 H   0  0  0  0  0  0  0  0  0  0  0  0
   -4.1875    1.8568    5.4333 H   0  0  0  0  0  0  0  0  0  0  0  0
   -1.8092    1.6944    4.8260 H   0  0  0  0  0  0  0  0  0  0  0  0
   -0.0661    1.1455    3.2282 H   0  0  0  0  0  0  0  0  0  0  0  0
    1.7151    0.6312    1.6279 H   0  0  0  0  0  0  0  0  0  0  0  0
    3.4750    0.1460    0.0270 H   0  0  0  0  0  0  0  0  0  0  0  0
    4.9534   -2.9658   -1.0675 H   0  0  0  0  0  0  0  0  0  0  0  0
    5.0786   -5.2061   -0.0159 H   0  0  0  0  0  0  0  0  0  0  0  0
  1  2  4  0
  2  3  4  0
  3  4  4  0
  4  5  4  0
  5  6  4  0
  6  7  4  0
  7  8  4  0
  8  9  4  0
  9 10  4  0
 10 11  4  0
 11 12  4  0
 12 13  4  0
 13 14  4  0
 14 15  4  0
 15 16  4  0
 16 17  4  0
 17 18  4  0
 18 19  1  0
 19 20  4  0
 20 21  4  0
 21 22  4  0
 22 23  4  0
 23 24  4  0
 24 25  4  0
 25 26  4  0
 26 27  4  0
 27 28  4  0
 28 29  4  0
 29 30  4  0
 30 31  1  0
 31 32  4  0
 32 33  4  0
 33 34  4  0
 34 35  4  0
 35 36  4  0
 36 37  4  0
 37 38  4  0
 38 39  4  0
 39 40  4  0
 40 41  4  0
 41 42  4  0
 42 43  4  0
 43 44  4  0
 44 45  4  0
 45 46  4  0
 46 47  4  0
 47 48  4  0
 48 49  4  0
 49 50  4  0
 50 51  4  0
 51 52  4  0
 30 53  4  0
 53 54  4  0
 54 55  4  0
 55 56  4  0
 56 57  4  0
 57 58  4  0
 58 59  4  0
 59 60  4  0
 60 61  4  0
 61 62  4  0
 18 63  4  0
 63 64  4  0
 64 65  4  0
 65 66  4  0
 66  1  4  0
 65  4  4  0
 63  6  4  0
 17  8  4  0
 62 19  4  0
 15 10  4  0
 62 23  4  0
 60 25  4  0
 58 27  4  0
 56 29  4  0
 52 31  4  0
 41 32  4  0
 52 43  4  0
 39 34  4  0
 50 45  4  0
  1 67  1  0
  2 68  1  0
  3 69  1  0
  7 70  1  0
  9 71  1  0
 11 72  1  0
 12 73  1  0
 13 74  1  0
 14 75  1  0
 20 76  1  0
 21 77  1  0
 22 78  1  0
 24 79  1  0
 26 80  1  0
 28 81  1  0
 35 82  1  0
 36 83  1  0
 37 84  1  0
 38 85  1  0
 40 86  1  0
 42 87  1  0
 46 88  1  0
 47 89  1  0
 48 90  1  0
 49 91  1  0
 51 92  1  0
 53 93  1  0
 54 94  1  0
 55 95  1  0
 57 96  1  0
 59 97  1  0
 61 98  1  0
 64 99  1  0
 66100  1  0
M  END
