
     RDKit          3D

102116  0  0  0  0  0  0  0  0999 V2000
    6.6609    6.7710    1.3973 C   0  0  0  0  0  0  0  0  0  0  0  0
    7.5990    6.4215    2.3616 C   0  0  0  0  0  0  0  0  0  0  0  0
    7.9783    5.0839    2.5104 C   0  0  0  0  0  0  0  0  0  0  0  0
    7.4421    4.0786    1.7162 C   0  0  0  0  0  0  0  0  0  0  0  0
    7.8407    2.8077    1.9002 N   0  0  0  0  0  0  0  0  0  0  0  0
    7.3183    1.8376    1.1292 C   0  0  0  0  0  0  0  0  0  0  0  0
    7.7240    0.5262    1.3183 C   0  0  0  0  0  0  0  0  0  0  0  0
    7.2214   -0.5423    0.5525 C   0  0  0  0  0  0  0  0  0  0  0  0
    7.6678   -1.8470    0.7954 C   0  0  0  0  0  0  0  0  0  0  0  0
    7.1914   -2.9405    0.0629 C   0  0  0  0  0  0  0  0  0  0  0  0
    7.6639   -4.2340    0.3460 C   0  0  0  0  0  0  0  0  0  0  0  0
    7.2018   -5.3402   -0.3635 C   0  0  0  0  0  0  0  0  0  0  0  0
    6.2605   -5.1660   -1.3668 C   0  0  0  0  0  0  0  0  0  0  0  0
    5.7860   -3.8855   -1.6591 C   0  0  0  0  0  0  0  0  0  0  0  0
    6.2354   -2.7390   -0.9574 C   0  0  0  0  0  0  0  0  0  0  0  0
    5.7738   -1.4097   -1.2230 C   0  0  0  0  0  0  0  0  0  0  0  0
    4.7800   -1.1755   -2.3036 C   0  0  0  0  0  0  0  0  0  0  0  0
    5.2603   -0.9053   -3.5994 C   0  0  0  0  0  0  0  0  0  0  0  0
    4.3832   -0.6835   -4.6548 C   0  0  0  0  0  0  0  0  0  0  0  0
    3.0101   -0.7273   -4.4319 C   0  0  0  0  0  0  0  0  0  0  0  0
    2.4933   -0.9931   -3.1544 C   0  0  0  0  0  0  0  0  0  0  0  0
    1.1036   -1.0355   -2.9501 C   0  0  0  0  0  0  0  0  0  0  0  0
    0.5519   -1.3030   -1.6876 C   0  0  0  0  0  0  0  0  0  0  0  0
   -0.8379   -1.3472   -1.4852 C   0  0  0  0  0  0  0  0  0  0  0  0
   -1.3866   -1.6207   -0.2207 C   0  0  0  0  0  0  0  0  0  0  0  0
   -2.7764   -1.6662   -0.0163 C   0  0  0  0  0  0  0  0  0  0  0  0
   -3.3478   -1.9484    1.2472 C   0  0  0  0  0  0  0  0  0  0  0  0
   -4.7534   -2.0036    1.4800 C   0  0  0  0  0  0  0  0  0  0  0  0
   -5.7498   -1.7500    0.4064 C   0  0  0  0  0  0  0  0  0  0  0  0
   -6.2064   -2.8311   -0.4138 C   0  0  0  0  0  0  0  0  0  0  0  0
   -5.7497   -4.1671   -0.2861 C   0  0  0  0  0  0  0  0  0  0  0  0
   -6.2199   -5.1925   -1.1096 C   0  0  0  0  0  0  0  0  0  0  0  0
   -7.1642   -4.9137   -2.0863 C   0  0  0  0  0  0  0  0  0  0  0  0
   -7.6341   -3.6109   -2.2378 C   0  0  0  0  0  0  0  0  0  0  0  0
   -7.1666   -2.5701   -1.4166 C   0  0  0  0  0  0  0  0  0  0  0  0
   -7.6542   -1.2693   -1.5916 C   0  0  0  0  0  0  0  0  0  0  0  0
   -7.2165   -0.2011   -0.7989 C   0  0  0  0  0  0  0  0  0  0  0  0
   -7.7358    1.0908   -1.0083 C   0  0  0  0  0  0  0  0  0  0  0  0
   -7.3417    2.1870   -0.2572 C   0  0  0  0  0  0  0  0  0  0  0  0
   -7.8841    3.3920   -0.5094 N   0  0  0  0  0  0  0  0  0  0  0  0
   -7.4971    4.4521    0.2221 C   0  0  0  0  0  0  0  0  0  0  0  0
   -8.0546    5.6981   -0.0332 C   0  0  0  0  0  0  0  0  0  0  0  0
   -7.6875    6.8332    0.6964 C   0  0  0  0  0  0  0  0  0  0  0  0
   -6.7399    6.7285    1.7079 C   0  0  0  0  0  0  0  0  0  0  0  0
   -6.1647    5.4904    1.9853 C   0  0  0  0  0  0  0  0  0  0  0  0
   -6.5387    4.3524    1.2479 C   0  0  0  0  0  0  0  0  0  0  0  0
   -5.9832    3.0933    1.4989 C   0  0  0  0  0  0  0  0  0  0  0  0
   -6.3829    1.9847    0.7437 C   0  0  0  0  0  0  0  0  0  0  0  0
   -5.8530    0.6998    0.9664 C   0  0  0  0  0  0  0  0  0  0  0  0
   -6.2570   -0.4245    0.2078 C   0  0  0  0  0  0  0  0  0  0  0  0
   -5.2322   -2.3007    2.7704 C   0  0  0  0  0  0  0  0  0  0  0  0
   -4.3542   -2.5343    3.8222 C   0  0  0  0  0  0  0  0  0  0  0  0
   -2.9816   -2.4764    3.6009 C   0  0  0  0  0  0  0  0  0  0  0  0
   -2.4661   -2.1884    2.3280 C   0  0  0  0  0  0  0  0  0  0  0  0
   -1.0768   -2.1386    2.1246 C   0  0  0  0  0  0  0  0  0  0  0  0
   -0.5264   -1.8570    0.8647 C   0  0  0  0  0  0  0  0  0  0  0  0
    0.8631   -1.8083    0.6632 C   0  0  0  0  0  0  0  0  0  0  0  0
    1.4117   -1.5342   -0.6010 C   0  0  0  0  0  0  0  0  0  0  0  0
    2.8016   -1.4891   -0.8045 C   0  0  0  0  0  0  0  0  0  0  0  0
    3.3740   -1.2215   -2.0705 C   0  0  0  0  0  0  0  0  0  0  0  0
    6.2687   -0.3043   -0.4578 C   0  0  0  0  0  0  0  0  0  0  0  0
    5.8571    1.0367   -0.6454 C   0  0  0  0  0  0  0  0  0  0  0  0
    6.3687    2.0934    0.1317 C   0  0  0  0  0  0  0  0  0  0  0  0
    5.9583    3.4188   -0.0537 C   0  0  0  0  0  0  0  0  0  0  0  0
    6.4929    4.4383    0.7415 C   0  0  0  0  0  0  0  0  0  0  0  0
    6.1071    5.7822    0.5869 C   0  0  0  0  0  0  0  0  0  0  0  0
    6.3614    7.8086    1.2759 H   0  0  0  0  0  0  0  0  0  0  0  0
    8.0387    7.1832    3.0002 H   0  0  0  0  0  0  0  0  0  0  0  0
    8.7126    4.8172    3.2669 H   0  0  0  0  0  0  0  0  0  0  0  0
    8.4611    0.3369    2.0970 H   0  0  0  0  0  0  0  0  0  0  0  0
    8.4055   -2.0166    1.5796 H   0  0  0  0  0  0  0  0  0  0  0  0
    8.4019   -4.3905    1.1303 H   0  0  0  0  0  0  0  0  0  0  0  0
    7.5757   -6.3334   -0.1304 H   0  0  0  0  0  0  0  0  0  0  0  0
    5.8893   -6.0216   -1.9245 H   0  0  0  0  0  0  0  0  0  0  0  0
    5.0444   -3.7927   -2.4506 H   0  0  0  0  0  0  0  0  0  0  0  0
    6.3330   -0.8713   -3.7839 H   0  0  0  0  0  0  0  0  0  0  0  0
    4.7687   -0.4784   -5.6501 H   0  0  0  0  0  0  0  0  0  0  0  0
    2.3395   -0.5528   -5.2712 H   0  0  0  0  0  0  0  0  0  0  0  0
    0.4361   -0.8605   -3.7923 H   0  0  0  0  0  0  0  0  0  0  0  0
   -1.5051   -1.1683   -2.3268 H   0  0  0  0  0  0  0  0  0  0  0  0
   -3.4294   -1.4811   -0.8683 H   0  0  0  0  0  0  0  0  0  0  0  0
   -5.0066   -4.4264    0.4661 H   0  0  0  0  0  0  0  0  0  0  0  0
   -5.8448   -6.2047   -0.9833 H   0  0  0  0  0  0  0  0  0  0  0  0
   -7.5358   -5.7059   -2.7305 H   0  0  0  0  0  0  0  0  0  0  0  0
   -8.3755   -3.4123   -3.0094 H   0  0  0  0  0  0  0  0  0  0  0  0
   -8.3961   -1.0827   -2.3677 H   0  0  0  0  0  0  0  0  0  0  0  0
   -8.4793    1.2574   -1.7861 H   0  0  0  0  0  0  0  0  0  0  0  0
   -8.7963    5.7872   -0.8234 H   0  0  0  0  0  0  0  0  0  0  0  0
   -8.1438    7.7933    0.4699 H   0  0  0  0  0  0  0  0  0  0  0  0
   -6.4496    7.6068    2.2786 H   0  0  0  0  0  0  0  0  0  0  0  0
   -5.4239    5.4159    2.7780 H   0  0  0  0  0  0  0  0  0  0  0  0
   -5.2395    2.9753    2.2835 H   0  0  0  0  0  0  0  0  0  0  0  0
   -5.1063    0.5809    1.7504 H   0  0  0  0  0  0  0  0  0  0  0  0
   -6.3047   -2.3475    2.9536 H   0  0  0  0  0  0  0  0  0  0  0  0
   -4.7391   -2.7601    4.8131 H   0  0  0  0  0  0  0  0  0  0  0  0
   -2.3107   -2.6612    4.4376 H   0  0  0  0  0  0  0  0  0  0  0  0
   -0.4076   -2.3258    2.9635 H   0  0  0  0  0  0  0  0  0  0  0  0
    1.5310   -1.9884    1.5042 H   0  0  0  0  0  0  0  0  0  0  0  0
    3.4530   -1.6725    0.0488 H   0  0  0  0  0  0  0  0  0  0  0  0
    5.1179    1.2717   -1.4099 H   0  0  0  0  0  0  0  0  0  0  0  0
    5.2213    3.6562   -0.8172 H   0  0  0  0  0  0  0  0  0  0  0  0
    5.3734    6.0623   -0.1654 H   0  0  0  0  0  0  0  0  0  0  0  0
  1  2  4  0
  2  3  4  0
  3  4  4  0
  4  5  4  0
  5  6  4  0
  6  7  4  0
  7  8  4  0
  8  9  4  0
  9 10  4  0
 10 11  4  0
 11 12  4  0
 12 13  4  0
 13 14  4  0
 14 15  4  0
 15 16  4  0
 16 17  1  0
 17 18  4  0
 18 19  4  0
 19 20  4  0
 20 21  4  0
 21 22  4  0
 22 23  4  0
 23 24  4  0
 24 25  4  0
 25 26  4  0
 26 27  4  0
 27 28  4  0
 28 29  1  0
 29 30  4  0
 30 31  4  0
 31 32  4  0
 32 33  4  0
 33 34  4  0
 34 35  4  0
 35 36  4  0
 36 37  4  0
 37 38  4  0
 38 39  4  0
 39 40  4  0
 40 41  4  0
 41 42  4  0
 42 43  4  0
 43 44  4  0
 44 45  4  0
 45 46  4  0
 46 47  4  0
 47 48  4  0
 48 49  4  0
 49 50  4  0
 28 51  4  0
 51 52  4  0
 52 53  4  0
 53 54  4  0
 54 55  4  0
 55 56  4  0
 56 57  4  0
 57 58  4  0
 58 59  4  0
 59 60  4  0
 16 61  4  0
 61 62  4  0
 62 63  4  0
 63 64  4  0
 64 65  4  0
 65 66  4  0
 66  1  4  0
 65  4  4  0
 63  6  4  0
 61  8  4  0
 15 10  4  0
 60 17  4  0
 60 21  4  0
 58 23  4  0
 56 25  4  0
 54 27  4  0
 50 29  4  0
 35 30  4  0
 50 37  4  0
 48 39  4  0
 46 41  4  0
  1 67  1  0
  2 68  1  0
  3 69  1  0
  7 70  1  0
  9 71  1  0
 11 72  1  0
 12 73  1  0
 13 74  1  0
 14 75  1  0
 18 76  1  0
 19 77  1  0
 20 78  1  0
 22 79  1  0
 24 80  1  0
 26 81  1  0
 31 82  1  0
 32 83  1  0
 33 84  1  0
 34 85  1  0
 36 86  1  0
 38 87  1  0
 42 88  1  0
 43 89  1  0
 44 90  1  0
 45 91  1  0
 47 92  1  0
 49 93  1  0
 51 94  1  0
 52 95  1  0
 53 96  1  0
 55 97  1  0
 57 98  1  0
 59 99  1  0
 62100  1  0
 64101  1  0
 66102  1  0
M  END
