
     RDKit          3D

102116  0  0  0  0  0  0  0  0999 V2000
   -6.0616   -2.1878    6.8477 C   0  0  0  0  0  0  0  0  0  0  0  0
   -6.7348   -2.3874    5.6414 C   0  0  0  0  0  0  0  0  0  0  0  0
   -6.3884   -1.6533    4.4948 C   0  0  0  0  0  0  0  0  0  0  0  0
   -7.0566   -1.8422    3.2735 C   0  0  0  0  0  0  0  0  0  0  0  0
   -6.7086   -1.1061    2.1283 C   0  0  0  0  0  0  0  0  0  0  0  0
   -7.3708   -1.2888    0.9054 C   0  0  0  0  0  0  0  0  0  0  0  0
   -7.0071   -0.5435   -0.2310 C   0  0  0  0  0  0  0  0  0  0  0  0
   -7.6450   -0.7084   -1.4646 C   0  0  0  0  0  0  0  0  0  0  0  0
   -7.2484    0.0475   -2.5743 C   0  0  0  0  0  0  0  0  0  0  0  0
   -7.8765   -0.1196   -3.8197 C   0  0  0  0  0  0  0  0  0  0  0  0
   -7.4717    0.6277   -4.9189 C   0  0  0  0  0  0  0  0  0  0  0  0
   -6.4379    1.5454   -4.7765 C   0  0  0  0  0  0  0  0  0  0  0  0
   -5.7971    1.7277   -3.5337 C   0  0  0  0  0  0  0  0  0  0  0  0
   -4.7050    2.7239   -3.4403 C   0  0  0  0  0  0  0  0  0  0  0  0
   -5.0544    4.0878   -3.4076 C   0  0  0  0  0  0  0  0  0  0  0  0
   -4.0804    5.0766   -3.3234 C   0  0  0  0  0  0  0  0  0  0  0  0
   -2.7372    4.7187   -3.2694 C   0  0  0  0  0  0  0  0  0  0  0  0
   -2.3473    3.3712   -3.2981 C   0  0  0  0  0  0  0  0  0  0  0  0
   -0.9846    3.0319   -3.2351 C   0  0  0  0  0  0  0  0  0  0  0  0
   -0.5546    1.6960   -3.2569 C   0  0  0  0  0  0  0  0  0  0  0  0
    0.8074    1.3569   -3.1837 C   0  0  0  0  0  0  0  0  0  0  0  0
    1.2319    0.0171   -3.2002 C   0  0  0  0  0  0  0  0  0  0  0  0
    2.5932   -0.3255   -3.1230 C   0  0  0  0  0  0  0  0  0  0  0  0
    3.0412   -1.6683   -3.1395 C   0  0  0  0  0  0  0  0  0  0  0  0
    4.4157   -2.0418   -3.0704 C   0  0  0  0  0  0  0  0  0  0  0  0
    5.5060   -1.0445   -3.0068 C   0  0  0  0  0  0  0  0  0  0  0  0
    6.0038   -0.5846   -1.7727 C   0  0  0  0  0  0  0  0  0  0  0  0
    5.4976   -1.0351   -0.6030 N   0  0  0  0  0  0  0  0  0  0  0  0
    5.9794   -0.5830    0.5657 C   0  0  0  0  0  0  0  0  0  0  0  0
    5.4378   -1.0575    1.7516 C   0  0  0  0  0  0  0  0  0  0  0  0
    5.8941   -0.6282    3.0102 C   0  0  0  0  0  0  0  0  0  0  0  0
    5.3318   -1.1190    4.2002 C   0  0  0  0  0  0  0  0  0  0  0  0
    5.7890   -0.6895    5.4567 C   0  0  0  0  0  0  0  0  0  0  0  0
    5.2268   -1.1793    6.6470 C   0  0  0  0  0  0  0  0  0  0  0  0
    5.6920   -0.7434    7.8884 C   0  0  0  0  0  0  0  0  0  0  0  0
    6.7243    0.1871    7.9555 C   0  0  0  0  0  0  0  0  0  0  0  0
    7.2931    0.6835    6.7816 C   0  0  0  0  0  0  0  0  0  0  0  0
    6.8359    0.2546    5.5247 C   0  0  0  0  0  0  0  0  0  0  0  0
    7.3973    0.7447    4.3340 C   0  0  0  0  0  0  0  0  0  0  0  0
    6.9373    0.3141    3.0780 C   0  0  0  0  0  0  0  0  0  0  0  0
    7.4909    0.8000    1.8847 C   0  0  0  0  0  0  0  0  0  0  0  0
    7.0163    0.3577    0.6363 C   0  0  0  0  0  0  0  0  0  0  0  0
    7.5468    0.8281   -0.5687 C   0  0  0  0  0  0  0  0  0  0  0  0
    7.0473    0.3649   -1.7914 C   0  0  0  0  0  0  0  0  0  0  0  0
    7.5731    0.8356   -3.0063 C   0  0  0  0  0  0  0  0  0  0  0  0
    7.0729    0.3728   -4.2172 C   0  0  0  0  0  0  0  0  0  0  0  0
    6.0460   -0.5630   -4.2171 C   0  0  0  0  0  0  0  0  0  0  0  0
    4.7639   -3.4055   -3.0826 C   0  0  0  0  0  0  0  0  0  0  0  0
    3.7887   -4.3931   -3.1674 C   0  0  0  0  0  0  0  0  0  0  0  0
    2.4467   -4.0331   -3.2430 C   0  0  0  0  0  0  0  0  0  0  0  0
    2.0596   -2.6846   -3.2294 C   0  0  0  0  0  0  0  0  0  0  0  0
    0.6988   -2.3424   -3.3047 C   0  0  0  0  0  0  0  0  0  0  0  0
    0.2733   -1.0053   -3.2930 C   0  0  0  0  0  0  0  0  0  0  0  0
   -1.0879   -0.6663   -3.3681 C   0  0  0  0  0  0  0  0  0  0  0  0
   -1.5120    0.6731   -3.3503 C   0  0  0  0  0  0  0  0  0  0  0  0
   -2.8741    1.0128   -3.4180 C   0  0  0  0  0  0  0  0  0  0  0  0
   -3.3277    2.3536   -3.3872 C   0  0  0  0  0  0  0  0  0  0  0  0
   -6.2001    0.9774   -2.4116 C   0  0  0  0  0  0  0  0  0  0  0  0
   -5.5949    1.1347   -1.2134 N   0  0  0  0  0  0  0  0  0  0  0  0
   -5.9740    0.4005   -0.1561 C   0  0  0  0  0  0  0  0  0  0  0  0
   -5.3237    0.5737    1.0570 C   0  0  0  0  0  0  0  0  0  0  0  0
   -5.6689   -0.1605    2.2049 C   0  0  0  0  0  0  0  0  0  0  0  0
   -4.9993    0.0290    3.4253 C   0  0  0  0  0  0  0  0  0  0  0  0
   -5.3461   -0.7048    4.5717 C   0  0  0  0  0  0  0  0  0  0  0  0
   -4.6785   -0.5152    5.7930 C   0  0  0  0  0  0  0  0  0  0  0  0
   -5.0345   -1.2524    6.9235 C   0  0  0  0  0  0  0  0  0  0  0  0
   -6.3401   -2.7627    7.7271 H   0  0  0  0  0  0  0  0  0  0  0  0
   -7.5351   -3.1232    5.6032 H   0  0  0  0  0  0  0  0  0  0  0  0
   -7.8604   -2.5738    3.2150 H   0  0  0  0  0  0  0  0  0  0  0  0
   -8.1755   -2.0174    0.8332 H   0  0  0  0  0  0  0  0  0  0  0  0
   -8.4508   -1.4323   -1.5618 H   0  0  0  0  0  0  0  0  0  0  0  0
   -8.6853   -0.8374   -3.9392 H   0  0  0  0  0  0  0  0  0  0  0  0
   -7.9569    0.4954   -5.8825 H   0  0  0  0  0  0  0  0  0  0  0  0
   -6.1181    2.1261   -5.6403 H   0  0  0  0  0  0  0  0  0  0  0  0
   -6.1023    4.3805   -3.4356 H   0  0  0  0  0  0  0  0  0  0  0  0
   -4.3685    6.1236   -3.2922 H   0  0  0  0  0  0  0  0  0  0  0  0
   -1.9895    5.5059   -3.1982 H   0  0  0  0  0  0  0  0  0  0  0  0
   -0.2411    3.8240   -3.1619 H   0  0  0  0  0  0  0  0  0  0  0  0
    1.5504    2.1488   -3.1076 H   0  0  0  0  0  0  0  0  0  0  0  0
    3.3216    0.4787   -3.0395 H   0  0  0  0  0  0  0  0  0  0  0  0
    4.6321   -1.7864    1.6843 H   0  0  0  0  0  0  0  0  0  0  0  0
    4.5243   -1.8477    4.1469 H   0  0  0  0  0  0  0  0  0  0  0  0
    4.4190   -1.9071    6.6143 H   0  0  0  0  0  0  0  0  0  0  0  0
    5.2477   -1.1309    8.8014 H   0  0  0  0  0  0  0  0  0  0  0  0
    7.0880    0.5279    8.9212 H   0  0  0  0  0  0  0  0  0  0  0  0
    8.0989    1.4103    6.8558 H   0  0  0  0  0  0  0  0  0  0  0  0
    8.2047    1.4727    4.3873 H   0  0  0  0  0  0  0  0  0  0  0  0
    8.2977    1.5291    1.9243 H   0  0  0  0  0  0  0  0  0  0  0  0
    8.3516    1.5595   -0.5541 H   0  0  0  0  0  0  0  0  0  0  0  0
    8.3776    1.5679   -3.0135 H   0  0  0  0  0  0  0  0  0  0  0  0
    7.4801    0.7379   -5.1564 H   0  0  0  0  0  0  0  0  0  0  0  0
    5.6535   -0.9256   -5.1660 H   0  0  0  0  0  0  0  0  0  0  0  0
    5.8101   -3.6984   -3.0185 H   0  0  0  0  0  0  0  0  0  0  0  0
    4.0742   -5.4414   -3.1726 H   0  0  0  0  0  0  0  0  0  0  0  0
    1.6986   -4.8203   -3.3094 H   0  0  0  0  0  0  0  0  0  0  0  0
   -0.0469   -3.1330   -3.3716 H   0  0  0  0  0  0  0  0  0  0  0  0
   -1.8317   -1.4581   -3.4362 H   0  0  0  0  0  0  0  0  0  0  0  0
   -3.6009    0.2055   -3.4819 H   0  0  0  0  0  0  0  0  0  0  0  0
   -4.5202    1.3071    1.1003 H   0  0  0  0  0  0  0  0  0  0  0  0
   -4.1947    0.7607    3.4826 H   0  0  0  0  0  0  0  0  0  0  0  0
   -3.8733    0.2119    5.8731 H   0  0  0  0  0  0  0  0  0  0  0  0
   -4.5091   -1.0950    7.8619 H   0  0  0  0  0  0  0  0  0  0  0  0
  1  2  4  0
  2  3  4  0
  3  4  4  0
  4  5  4  0
  5  6  4  0
  6  7  4  0
  7  8  4  0
  8  9  4  0
  9 10  4  0
 10 11  4  0
 11 12  4  0
 12 13  4  0
 13 14  1  0
 14 15  4  0
 15 16  4  0
 16 17  4  0
 17 18  4  0
 18 19  4  0
 19 20  4  0
 20 21  4  0
 21 22  4  0
 22 23  4  0
 23 24  4  0
 24 25  4  0
 25 26  1  0
 26 27  4  0
 27 28  4  0
 28 29  4  0
 29 30  4  0
 30 31  4  0
 31 32  4  0
 32 33  4  0
 33 34  4  0
 34 35  4  0
 35 36  4  0
 36 37  4  0
 37 38  4  0
 38 39  4  0
 39 40  4  0
 40 41  4  0
 41 42  4  0
 42 43  4  0
 43 44  4  0
 44 45  4  0
 45 46  4  0
 46 47  4  0
 25 48  4  0
 48 49  4  0
 49 50  4  0
 50 51  4  0
 51 52  4  0
 52 53  4  0
 53 54  4  0
 54 55  4  0
 55 56  4  0
 56 57  4  0
 13 58  4  0
 58 59  4  0
 59 60  4  0
 60 61  4  0
 61 62  4  0
 62 63  4  0
 63 64  4  0
 64 65  4  0
 65 66  4  0
 66  1  4  0
 64  3  4  0
 62  5  4  0
 60  7  4  0
 58  9  4  0
 57 14  4  0
 57 18  4  0
 55 20  4  0
 53 22  4  0
 51 24  4  0
 47 26  4  0
 44 27  4  0
 42 29  4  0
 40 31  4  0
 38 33  4  0
  1 67  1  0
  2 68  1  0
  4 69  1  0
  6 70  1  0
  8 71  1  0
 10 72  1  0
 11 73  1  0
 12 74  1  0
 15 75  1  0
 16 76  1  0
 17 77  1  0
 19 78  1  0
 21 79  1  0
 23 80  1  0
 30 81  1  0
 32 82  1  0
 34 83  1  0
 35 84  1  0
 36 85  1  0
 37 86  1  0
 39 87  1  0
 41 88  1  0
 43 89  1  0
 45 90  1  0
 46 91  1  0
 47 92  1  0
 48 93  1  0
 49 94  1  0
 50 95  1  0
 52 96  1  0
 54 97  1  0
 56 98  1  0
 61 99  1  0
 63100  1  0
 65101  1  0
 66102  1  0
M  END
