
     RDKit          3D

102116  0  0  0  0  0  0  0  0999 V2000
   -6.8582   -0.3661   -5.8323 C   0  0  0  0  0  0  0  0  0  0  0  0
   -5.7876   -1.2440   -5.7074 C   0  0  0  0  0  0  0  0  0  0  0  0
   -5.3541   -1.6351   -4.4371 C   0  0  0  0  0  0  0  0  0  0  0  0
   -5.9662   -1.1694   -3.2812 C   0  0  0  0  0  0  0  0  0  0  0  0
   -5.5141   -1.5754   -2.0842 N   0  0  0  0  0  0  0  0  0  0  0  0
   -6.0845   -1.1287   -0.9417 C   0  0  0  0  0  0  0  0  0  0  0  0
   -7.1694   -0.2362   -0.9876 C   0  0  0  0  0  0  0  0  0  0  0  0
   -7.6443    0.1803   -2.2379 C   0  0  0  0  0  0  0  0  0  0  0  0
   -7.0446   -0.2817   -3.4122 C   0  0  0  0  0  0  0  0  0  0  0  0
   -7.4879    0.1165   -4.6870 C   0  0  0  0  0  0  0  0  0  0  0  0
   -7.7646    0.2287    0.1928 C   0  0  0  0  0  0  0  0  0  0  0  0
   -7.2972   -0.1694    1.4487 C   0  0  0  0  0  0  0  0  0  0  0  0
   -7.9145    0.3140    2.6162 C   0  0  0  0  0  0  0  0  0  0  0  0
   -7.4698   -0.0598    3.8925 C   0  0  0  0  0  0  0  0  0  0  0  0
   -8.0885    0.4207    5.0593 C   0  0  0  0  0  0  0  0  0  0  0  0
   -7.6290    0.0374    6.3199 C   0  0  0  0  0  0  0  0  0  0  0  0
   -6.5456   -0.8286    6.4293 C   0  0  0  0  0  0  0  0  0  0  0  0
   -5.9224   -1.3130    5.2783 C   0  0  0  0  0  0  0  0  0  0  0  0
   -6.3756   -0.9373    4.0026 C   0  0  0  0  0  0  0  0  0  0  0  0
   -5.7631   -1.4176    2.8315 C   0  0  0  0  0  0  0  0  0  0  0  0
   -6.2051   -1.0568    1.5335 C   0  0  0  0  0  0  0  0  0  0  0  0
   -5.6069   -1.5390    0.3230 C   0  0  0  0  0  0  0  0  0  0  0  0
   -4.4730   -2.5008    0.3777 C   0  0  0  0  0  0  0  0  0  0  0  0
   -4.7729   -3.8697    0.5224 C   0  0  0  0  0  0  0  0  0  0  0  0
   -3.7621   -4.8217    0.5883 C   0  0  0  0  0  0  0  0  0  0  0  0
   -2.4321   -4.4218    0.5042 C   0  0  0  0  0  0  0  0  0  0  0  0
   -2.0928   -3.0690    0.3505 C   0  0  0  0  0  0  0  0  0  0  0  0
   -0.7432   -2.6894    0.2550 C   0  0  0  0  0  0  0  0  0  0  0  0
   -0.3636   -1.3484    0.0929 C   0  0  0  0  0  0  0  0  0  0  0  0
    0.9871   -0.9739   -0.0128 C   0  0  0  0  0  0  0  0  0  0  0  0
    1.3652    0.3688   -0.1813 C   0  0  0  0  0  0  0  0  0  0  0  0
    2.7157    0.7445   -0.2903 C   0  0  0  0  0  0  0  0  0  0  0  0
    3.1189    2.0909   -0.4585 C   0  0  0  0  0  0  0  0  0  0  0  0
    4.4822    2.4996   -0.5624 C   0  0  0  0  0  0  0  0  0  0  0  0
    5.6121    1.5353   -0.4807 C   0  0  0  0  0  0  0  0  0  0  0  0
    6.1548    1.1671    0.7947 C   0  0  0  0  0  0  0  0  0  0  0  0
    5.6807    1.6741    2.0310 C   0  0  0  0  0  0  0  0  0  0  0  0
    6.2311    1.2948    3.2680 C   0  0  0  0  0  0  0  0  0  0  0  0
    5.7437    1.8115    4.4802 C   0  0  0  0  0  0  0  0  0  0  0  0
    6.3039    1.4247    5.6987 C   0  0  0  0  0  0  0  0  0  0  0  0
    7.3571    0.5159    5.7210 C   0  0  0  0  0  0  0  0  0  0  0  0
    7.8505   -0.0062    4.5244 C   0  0  0  0  0  0  0  0  0  0  0  0
    7.2956    0.3757    3.2908 C   0  0  0  0  0  0  0  0  0  0  0  0
    7.7764   -0.1361    2.0768 C   0  0  0  0  0  0  0  0  0  0  0  0
    7.2220    0.2478    0.8426 C   0  0  0  0  0  0  0  0  0  0  0  0
    7.7281   -0.2810   -0.3482 C   0  0  0  0  0  0  0  0  0  0  0  0
    7.1988    0.0865   -1.5927 C   0  0  0  0  0  0  0  0  0  0  0  0
    7.7211   -0.4518   -2.7757 C   0  0  0  0  0  0  0  0  0  0  0  0
    7.1913   -0.0835   -4.0149 C   0  0  0  0  0  0  0  0  0  0  0  0
    7.6870   -0.6022   -5.2255 C   0  0  0  0  0  0  0  0  0  0  0  0
    7.1291   -0.2083   -6.4398 C   0  0  0  0  0  0  0  0  0  0  0  0
    6.0780    0.7013   -6.4477 C   0  0  0  0  0  0  0  0  0  0  0  0
    5.5917    1.2118   -5.2403 C   0  0  0  0  0  0  0  0  0  0  0  0
    6.1313    0.8353   -4.0175 C   0  0  0  0  0  0  0  0  0  0  0  0
    5.6303    1.3543   -2.8848 N   0  0  0  0  0  0  0  0  0  0  0  0
    6.1349    1.0013   -1.6797 C   0  0  0  0  0  0  0  0  0  0  0  0
    4.7848    3.8637   -0.7352 C   0  0  0  0  0  0  0  0  0  0  0  0
    3.7762    4.8183   -0.7982 C   0  0  0  0  0  0  0  0  0  0  0  0
    2.4457    4.4247   -0.6901 C   0  0  0  0  0  0  0  0  0  0  0  0
    2.1028    3.0745   -0.5218 C   0  0  0  0  0  0  0  0  0  0  0  0
    0.7525    2.6983   -0.4157 C   0  0  0  0  0  0  0  0  0  0  0  0
    0.3706    1.3585   -0.2446 C   0  0  0  0  0  0  0  0  0  0  0  0
   -0.9804    0.9838   -0.1381 C   0  0  0  0  0  0  0  0  0  0  0  0
   -1.3591   -0.3593    0.0302 C   0  0  0  0  0  0  0  0  0  0  0  0
   -2.7099   -0.7385    0.1316 C   0  0  0  0  0  0  0  0  0  0  0  0
   -3.1108   -2.0872    0.2869 C   0  0  0  0  0  0  0  0  0  0  0  0
   -7.2004   -0.0576   -6.8167 H   0  0  0  0  0  0  0  0  0  0  0  0
   -5.2857   -1.6269   -6.5921 H   0  0  0  0  0  0  0  0  0  0  0  0
   -4.5145   -2.3203   -4.3434 H   0  0  0  0  0  0  0  0  0  0  0  0
   -8.4829    0.8702   -2.2989 H   0  0  0  0  0  0  0  0  0  0  0  0
   -8.3236    0.8043   -4.7916 H   0  0  0  0  0  0  0  0  0  0  0  0
   -8.6071    0.9159    0.1293 H   0  0  0  0  0  0  0  0  0  0  0  0
   -8.7596    0.9955    2.5322 H   0  0  0  0  0  0  0  0  0  0  0  0
   -8.9360    1.0992    4.9936 H   0  0  0  0  0  0  0  0  0  0  0  0
   -8.1166    0.4154    7.2145 H   0  0  0  0  0  0  0  0  0  0  0  0
   -6.1835   -1.1283    7.4093 H   0  0  0  0  0  0  0  0  0  0  0  0
   -5.0768   -1.9895    5.3833 H   0  0  0  0  0  0  0  0  0  0  0  0
   -4.9138   -2.0916    2.9389 H   0  0  0  0  0  0  0  0  0  0  0  0
   -5.8103   -4.1942    0.5785 H   0  0  0  0  0  0  0  0  0  0  0  0
   -4.0114   -5.8735    0.6980 H   0  0  0  0  0  0  0  0  0  0  0  0
   -1.6546   -5.1814    0.5528 H   0  0  0  0  0  0  0  0  0  0  0  0
    0.0301   -3.4545    0.2999 H   0  0  0  0  0  0  0  0  0  0  0  0
    1.7578   -1.7411    0.0337 H   0  0  0  0  0  0  0  0  0  0  0  0
    3.4724   -0.0368   -0.2473 H   0  0  0  0  0  0  0  0  0  0  0  0
    4.8567    2.3869    2.0359 H   0  0  0  0  0  0  0  0  0  0  0  0
    4.9192    2.5215    4.4816 H   0  0  0  0  0  0  0  0  0  0  0  0
    5.9157    1.8338    6.6277 H   0  0  0  0  0  0  0  0  0  0  0  0
    7.7951    0.2129    6.6684 H   0  0  0  0  0  0  0  0  0  0  0  0
    8.6741   -0.7152    4.5606 H   0  0  0  0  0  0  0  0  0  0  0  0
    8.6005   -0.8475    2.0953 H   0  0  0  0  0  0  0  0  0  0  0  0
    8.5525   -0.9916   -0.3093 H   0  0  0  0  0  0  0  0  0  0  0  0
    8.5443   -1.1615   -2.7334 H   0  0  0  0  0  0  0  0  0  0  0  0
    8.5084   -1.3147   -5.2252 H   0  0  0  0  0  0  0  0  0  0  0  0
    7.5121   -0.6098   -7.3744 H   0  0  0  0  0  0  0  0  0  0  0  0
    5.6321    1.0168   -7.3872 H   0  0  0  0  0  0  0  0  0  0  0  0
    4.7682    1.9224   -5.2506 H   0  0  0  0  0  0  0  0  0  0  0  0
    5.8219    4.1812   -0.8273 H   0  0  0  0  0  0  0  0  0  0  0  0
    4.0273    5.8664   -0.9348 H   0  0  0  0  0  0  0  0  0  0  0  0
    1.6708    5.1867   -0.7426 H   0  0  0  0  0  0  0  0  0  0  0  0
   -0.0191    3.4646   -0.4683 H   0  0  0  0  0  0  0  0  0  0  0  0
   -1.7522    1.7494   -0.1930 H   0  0  0  0  0  0  0  0  0  0  0  0
   -3.4694    0.0392    0.0748 H   0  0  0  0  0  0  0  0  0  0  0  0
  1  2  4  0
  2  3  4  0
  3  4  4  0
  4  5  4  0
  5  6  4  0
  6  7  4  0
  7  8  4  0
  8  9  4  0
  9 10  4  0
  7 11  4  0
 11 12  4  0
 12 13  4  0
 13 14  4  0
 14 15  4  0
 15 16  4  0
 16 17  4  0
 17 18  4  0
 18 19  4  0
 19 20  4  0
 20 21  4  0
 21 22  4  0
 22 23  1  0
 23 24  4  0
 24 25  4  0
 25 26  4  0
 26 27  4  0
 27 28  4  0
 28 29  4  0
 29 30  4  0
 30 31  4  0
 31 32  4  0
 32 33  4  0
 33 34  4  0
 34 35  1  0
 35 36  4  0
 36 37  4  0
 37 38  4  0
 38 39  4  0
 39 40  4  0
 40 41  4  0
 41 42  4  0
 42 43  4  0
 43 44  4  0
 44 45  4  0
 45 46  4  0
 46 47  4  0
 47 48  4  0
 48 49  4  0
 49 50  4  0
 50 51  4  0
 51 52  4  0
 52 53  4  0
 53 54  4  0
 54 55  4  0
 55 56  4  0
 34 57  4  0
 57 58  4  0
 58 59  4  0
 59 60  4  0
 60 61  4  0
 61 62  4  0
 62 63  4  0
 63 64  4  0
 64 65  4  0
 65 66  4  0
 10  1  4  0
 21 12  4  0
 66 23  4  0
  9  4  4  0
 19 14  4  0
 66 27  4  0
 22  6  4  0
 64 29  4  0
 62 31  4  0
 60 33  4  0
 56 35  4  0
 45 36  4  0
 56 47  4  0
 43 38  4  0
 54 49  4  0
  1 67  1  0
  2 68  1  0
  3 69  1  0
  8 70  1  0
 10 71  1  0
 11 72  1  0
 13 73  1  0
 15 74  1  0
 16 75  1  0
 17 76  1  0
 18 77  1  0
 20 78  1  0
 24 79  1  0
 25 80  1  0
 26 81  1  0
 28 82  1  0
 30 83  1  0
 32 84  1  0
 37 85  1  0
 39 86  1  0
 40 87  1  0
 41 88  1  0
 42 89  1  0
 44 90  1  0
 46 91  1  0
 48 92  1  0
 50 93  1  0
 51 94  1  0
 52 95  1  0
 53 96  1  0
 57 97  1  0
 58 98  1  0
 59 99  1  0
 61100  1  0
 63101  1  0
 65102  1  0
M  END
