
     RDKit          3D

102116  0  0  0  0  0  0  0  0999 V2000
   14.5376    0.1729   -4.6198 C   0  0  0  0  0  0  0  0  0  0  0  0
   15.0801    1.0290   -3.6687 C   0  0  0  0  0  0  0  0  0  0  0  0
   14.3951    1.2639   -2.4725 C   0  0  0  0  0  0  0  0  0  0  0  0
   13.1738    0.6625   -2.1984 C   0  0  0  0  0  0  0  0  0  0  0  0
   12.5565    0.9225   -1.0326 N   0  0  0  0  0  0  0  0  0  0  0  0
   11.3745    0.3390   -0.7704 C   0  0  0  0  0  0  0  0  0  0  0  0
   10.7387    0.6087    0.4331 C   0  0  0  0  0  0  0  0  0  0  0  0
    9.5022    0.0339    0.7755 C   0  0  0  0  0  0  0  0  0  0  0  0
    8.8752    0.3190    1.9996 C   0  0  0  0  0  0  0  0  0  0  0  0
    7.6419   -0.2587    2.3411 C   0  0  0  0  0  0  0  0  0  0  0  0
    7.0168    0.0253    3.5642 C   0  0  0  0  0  0  0  0  0  0  0  0
    5.7914   -0.5594    3.8918 C   0  0  0  0  0  0  0  0  0  0  0  0
    5.1613   -1.4394    3.0044 C   0  0  0  0  0  0  0  0  0  0  0  0
    3.8729   -2.0590    3.3505 C   0  0  0  0  0  0  0  0  0  0  0  0
    3.8911   -3.2508    4.0976 C   0  0  0  0  0  0  0  0  0  0  0  0
    2.7083   -3.8879    4.4563 C   0  0  0  0  0  0  0  0  0  0  0  0
    1.4866   -3.3427    4.0726 C   0  0  0  0  0  0  0  0  0  0  0  0
    1.4279   -2.1557    3.3267 C   0  0  0  0  0  0  0  0  0  0  0  0
    0.1847   -1.6203    2.9480 C   0  0  0  0  0  0  0  0  0  0  0  0
    0.0879   -0.4353    2.2018 C   0  0  0  0  0  0  0  0  0  0  0  0
   -1.1559    0.0986    1.8230 C   0  0  0  0  0  0  0  0  0  0  0  0
   -1.2478    1.2847    1.0745 C   0  0  0  0  0  0  0  0  0  0  0  0
   -2.4903    1.8214    0.6933 C   0  0  0  0  0  0  0  0  0  0  0  0
   -2.6035    3.0148   -0.0598 C   0  0  0  0  0  0  0  0  0  0  0  0
   -3.8503    3.5804   -0.4574 C   0  0  0  0  0  0  0  0  0  0  0  0
   -5.1424    2.9675   -0.1106 C   0  0  0  0  0  0  0  0  0  0  0  0
   -5.7708    2.0744   -0.9927 C   0  0  0  0  0  0  0  0  0  0  0  0
   -7.0107    1.4886   -0.6819 C   0  0  0  0  0  0  0  0  0  0  0  0
   -7.6424    0.5971   -1.5648 C   0  0  0  0  0  0  0  0  0  0  0  0
   -8.8843    0.0169   -1.2549 C   0  0  0  0  0  0  0  0  0  0  0  0
   -9.5218   -0.8706   -2.1338 C   0  0  0  0  0  0  0  0  0  0  0  0
  -10.7661   -1.4403   -1.8093 C   0  0  0  0  0  0  0  0  0  0  0  0
  -11.4195   -2.3267   -2.6727 C   0  0  0  0  0  0  0  0  0  0  0  0
  -12.6569   -2.8726   -2.3151 C   0  0  0  0  0  0  0  0  0  0  0  0
  -13.3450   -3.7667   -3.1553 C   0  0  0  0  0  0  0  0  0  0  0  0
  -14.5759   -4.2911   -2.7669 C   0  0  0  0  0  0  0  0  0  0  0  0
  -15.1213   -3.9252   -1.5420 C   0  0  0  0  0  0  0  0  0  0  0  0
  -14.4324   -3.0361   -0.7113 C   0  0  0  0  0  0  0  0  0  0  0  0
  -13.2042   -2.4984   -1.0735 C   0  0  0  0  0  0  0  0  0  0  0  0
  -12.5830   -1.6475   -0.2377 N   0  0  0  0  0  0  0  0  0  0  0  0
  -11.3942   -1.1285   -0.5916 C   0  0  0  0  0  0  0  0  0  0  0  0
  -10.7531   -0.2499    0.2709 C   0  0  0  0  0  0  0  0  0  0  0  0
   -9.5090    0.3320   -0.0340 C   0  0  0  0  0  0  0  0  0  0  0  0
   -8.8765    1.2212    0.8512 C   0  0  0  0  0  0  0  0  0  0  0  0
   -7.6362    1.8040    0.5422 C   0  0  0  0  0  0  0  0  0  0  0  0
   -7.0067    2.6952    1.4242 C   0  0  0  0  0  0  0  0  0  0  0  0
   -5.7757    3.2711    1.1002 C   0  0  0  0  0  0  0  0  0  0  0  0
   -3.8630    4.7697   -1.2093 C   0  0  0  0  0  0  0  0  0  0  0  0
   -2.6779    5.4018   -1.5693 C   0  0  0  0  0  0  0  0  0  0  0  0
   -1.4586    4.8543   -1.1822 C   0  0  0  0  0  0  0  0  0  0  0  0
   -1.4049    3.6699   -0.4322 C   0  0  0  0  0  0  0  0  0  0  0  0
   -0.1631    3.1339   -0.0512 C   0  0  0  0  0  0  0  0  0  0  0  0
   -0.0697    1.9508    0.6974 C   0  0  0  0  0  0  0  0  0  0  0  0
    1.1735    1.4179    1.0772 C   0  0  0  0  0  0  0  0  0  0  0  0
    1.2651    0.2322    1.8253 C   0  0  0  0  0  0  0  0  0  0  0  0
    2.5084   -0.3020    2.2053 C   0  0  0  0  0  0  0  0  0  0  0  0
    2.6242   -1.4966    2.9554 C   0  0  0  0  0  0  0  0  0  0  0  0
    5.7864   -1.7240    1.7802 C   0  0  0  0  0  0  0  0  0  0  0  0
    7.0193   -1.1435    1.4363 C   0  0  0  0  0  0  0  0  0  0  0  0
    7.6458   -1.4260    0.2114 C   0  0  0  0  0  0  0  0  0  0  0  0
    8.8802   -0.8474   -0.1283 C   0  0  0  0  0  0  0  0  0  0  0  0
    9.5126   -1.1265   -1.3483 C   0  0  0  0  0  0  0  0  0  0  0  0
   10.7496   -0.5406   -1.6708 C   0  0  0  0  0  0  0  0  0  0  0  0
   11.3990   -0.8055   -2.8817 C   0  0  0  0  0  0  0  0  0  0  0  0
   12.6294   -0.2035   -3.1653 C   0  0  0  0  0  0  0  0  0  0  0  0
   13.3136   -0.4440   -4.3706 C   0  0  0  0  0  0  0  0  0  0  0  0
   15.0649   -0.0140   -5.5516 H   0  0  0  0  0  0  0  0  0  0  0  0
   16.0343    1.5166   -3.8507 H   0  0  0  0  0  0  0  0  0  0  0  0
   14.8255    1.9349   -1.7329 H   0  0  0  0  0  0  0  0  0  0  0  0
   11.2307    1.2908    1.1239 H   0  0  0  0  0  0  0  0  0  0  0  0
    9.3566    1.0005    2.6992 H   0  0  0  0  0  0  0  0  0  0  0  0
    7.4798    0.7057    4.2756 H   0  0  0  0  0  0  0  0  0  0  0  0
    5.3263   -0.3221    4.8466 H   0  0  0  0  0  0  0  0  0  0  0  0
    4.8416   -3.6867    4.4013 H   0  0  0  0  0  0  0  0  0  0  0  0
    2.7386   -4.8082    5.0333 H   0  0  0  0  0  0  0  0  0  0  0  0
    0.5720   -3.8559    4.3629 H   0  0  0  0  0  0  0  0  0  0  0  0
   -0.7284   -2.1370    3.2397 H   0  0  0  0  0  0  0  0  0  0  0  0
   -2.0684   -0.4180    2.1152 H   0  0  0  0  0  0  0  0  0  0  0  0
   -3.3938    1.2919    0.9923 H   0  0  0  0  0  0  0  0  0  0  0  0
   -5.2806    1.8352   -1.9355 H   0  0  0  0  0  0  0  0  0  0  0  0
   -7.1592    0.3530   -2.5094 H   0  0  0  0  0  0  0  0  0  0  0  0
   -9.0480   -1.1216   -3.0809 H   0  0  0  0  0  0  0  0  0  0  0  0
  -10.9648   -2.5919   -3.6240 H   0  0  0  0  0  0  0  0  0  0  0  0
  -12.9244   -4.0574   -4.1150 H   0  0  0  0  0  0  0  0  0  0  0  0
  -15.1062   -4.9818   -3.4174 H   0  0  0  0  0  0  0  0  0  0  0  0
  -16.0808   -4.3271   -1.2271 H   0  0  0  0  0  0  0  0  0  0  0  0
  -14.8651   -2.7543    0.2458 H   0  0  0  0  0  0  0  0  0  0  0  0
  -11.2464   -0.0137    1.2119 H   0  0  0  0  0  0  0  0  0  0  0  0
   -9.3593    1.4654    1.7962 H   0  0  0  0  0  0  0  0  0  0  0  0
   -7.4713    2.9523    2.3736 H   0  0  0  0  0  0  0  0  0  0  0  0
   -5.3098    3.9614    1.8007 H   0  0  0  0  0  0  0  0  0  0  0  0
   -4.8107    5.2091   -1.5160 H   0  0  0  0  0  0  0  0  0  0  0  0
   -2.7040    6.3200   -2.1497 H   0  0  0  0  0  0  0  0  0  0  0  0
   -0.5418    5.3635   -1.4729 H   0  0  0  0  0  0  0  0  0  0  0  0
    0.7516    3.6475   -0.3435 H   0  0  0  0  0  0  0  0  0  0  0  0
    2.0865    1.9341    0.7850 H   0  0  0  0  0  0  0  0  0  0  0  0
    3.4100    0.2309    1.9073 H   0  0  0  0  0  0  0  0  0  0  0  0
    5.2983   -2.4086    1.0877 H   0  0  0  0  0  0  0  0  0  0  0  0
    7.1651   -2.1086   -0.4873 H   0  0  0  0  0  0  0  0  0  0  0  0
    9.0408   -1.8063   -2.0552 H   0  0  0  0  0  0  0  0  0  0  0  0
   10.9470   -1.4806   -3.6041 H   0  0  0  0  0  0  0  0  0  0  0  0
   12.8951   -1.1126   -5.1193 H   0  0  0  0  0  0  0  0  0  0  0  0
  1  2  4  0
  2  3  4  0
  3  4  4  0
  4  5  4  0
  5  6  4  0
  6  7  4  0
  7  8  4  0
  8  9  4  0
  9 10  4  0
 10 11  4  0
 11 12  4  0
 12 13  4  0
 13 14  1  0
 14 15  4  0
 15 16  4  0
 16 17  4  0
 17 18  4  0
 18 19  4  0
 19 20  4  0
 20 21  4  0
 21 22  4  0
 22 23  4  0
 23 24  4  0
 24 25  4  0
 25 26  1  0
 26 27  4  0
 27 28  4  0
 28 29  4  0
 29 30  4  0
 30 31  4  0
 31 32  4  0
 32 33  4  0
 33 34  4  0
 34 35  4  0
 35 36  4  0
 36 37  4  0
 37 38  4  0
 38 39  4  0
 39 40  4  0
 40 41  4  0
 41 42  4  0
 42 43  4  0
 43 44  4  0
 44 45  4  0
 45 46  4  0
 46 47  4  0
 25 48  4  0
 48 49  4  0
 49 50  4  0
 50 51  4  0
 51 52  4  0
 52 53  4  0
 53 54  4  0
 54 55  4  0
 55 56  4  0
 56 57  4  0
 13 58  4  0
 58 59  4  0
 59 60  4  0
 60 61  4  0
 61 62  4  0
 62 63  4  0
 63 64  4  0
 64 65  4  0
 65 66  4  0
 66  1  4  0
 65  4  4  0
 63  6  4  0
 61  8  4  0
 59 10  4  0
 57 14  4  0
 57 18  4  0
 55 20  4  0
 53 22  4  0
 51 24  4  0
 47 26  4  0
 45 28  4  0
 43 30  4  0
 41 32  4  0
 39 34  4  0
  1 67  1  0
  2 68  1  0
  3 69  1  0
  7 70  1  0
  9 71  1  0
 11 72  1  0
 12 73  1  0
 15 74  1  0
 16 75  1  0
 17 76  1  0
 19 77  1  0
 21 78  1  0
 23 79  1  0
 27 80  1  0
 29 81  1  0
 31 82  1  0
 33 83  1  0
 35 84  1  0
 36 85  1  0
 37 86  1  0
 38 87  1  0
 42 88  1  0
 44 89  1  0
 46 90  1  0
 47 91  1  0
 48 92  1  0
 49 93  1  0
 50 94  1  0
 52 95  1  0
 54 96  1  0
 56 97  1  0
 58 98  1  0
 60 99  1  0
 62100  1  0
 64101  1  0
 66102  1  0
M  END
