
     RDKit          3D

 92106  0  0  0  0  0  0  0  0999 V2000
   -7.6505   -3.3675    6.5575 C   0  0  0  0  0  0  0  0  0  0  0  0
   -6.8037   -2.4012    6.0676 C   0  0  0  0  0  0  0  0  0  0  0  0
   -6.9858   -2.1592    4.6644 C   0  0  0  0  0  0  0  0  0  0  0  0
   -6.3267   -1.2604    3.7917 C   0  0  0  0  0  0  0  0  0  0  0  0
   -6.6687   -1.1856    2.4292 C   0  0  0  0  0  0  0  0  0  0  0  0
   -7.6815   -2.0160    1.9212 C   0  0  0  0  0  0  0  0  0  0  0  0
   -8.0145   -1.9335    0.5588 C   0  0  0  0  0  0  0  0  0  0  0  0
   -7.3607   -1.0413   -0.3074 C   0  0  0  0  0  0  0  0  0  0  0  0
   -7.7043   -0.9707   -1.6675 C   0  0  0  0  0  0  0  0  0  0  0  0
   -7.0310   -0.0659   -2.5123 C   0  0  0  0  0  0  0  0  0  0  0  0
   -7.3016    0.1702   -4.1971 S   0  0  0  0  0  0  0  0  0  0  0  0
   -6.0965    1.3707   -4.2996 C   0  0  0  0  0  0  0  0  0  0  0  0
   -5.4862    1.6001   -3.0851 C   0  0  0  0  0  0  0  0  0  0  0  0
   -4.4222    2.5931   -2.9659 C   0  0  0  0  0  0  0  0  0  0  0  0
   -4.8004    3.9403   -2.8617 C   0  0  0  0  0  0  0  0  0  0  0  0
   -3.8348    4.9312   -2.7298 C   0  0  0  0  0  0  0  0  0  0  0  0
   -2.4863    4.5830   -2.6983 C   0  0  0  0  0  0  0  0  0  0  0  0
   -2.0808    3.2420   -2.7985 C   0  0  0  0  0  0  0  0  0  0  0  0
   -0.7152    2.9127   -2.7623 C   0  0  0  0  0  0  0  0  0  0  0  0
   -0.2736    1.5838   -2.8592 C   0  0  0  0  0  0  0  0  0  0  0  0
    1.0926    1.2574   -2.8209 C   0  0  0  0  0  0  0  0  0  0  0  0
    1.5315   -0.0740   -2.9177 C   0  0  0  0  0  0  0  0  0  0  0  0
    2.8975   -0.4026   -2.8790 C   0  0  0  0  0  0  0  0  0  0  0  0
    3.3590   -1.7388   -2.9699 C   0  0  0  0  0  0  0  0  0  0  0  0
    4.7312   -2.1122   -2.9302 C   0  0  0  0  0  0  0  0  0  0  0  0
    5.7941   -1.1234   -2.7701 C   0  0  0  0  0  0  0  0  0  0  0  0
    6.5313   -0.7073   -3.8583 C   0  0  0  0  0  0  0  0  0  0  0  0
    7.7119    0.4454   -3.4333 S   0  0  0  0  0  0  0  0  0  0  0  0
    7.2604    0.4077   -1.7713 C   0  0  0  0  0  0  0  0  0  0  0  0
    7.8355    1.1536   -0.7233 C   0  0  0  0  0  0  0  0  0  0  0  0
    7.3470    1.0075    0.5854 C   0  0  0  0  0  0  0  0  0  0  0  0
    7.9010    1.7376    1.6502 C   0  0  0  0  0  0  0  0  0  0  0  0
    7.4216    1.6040    2.9639 C   0  0  0  0  0  0  0  0  0  0  0  0
    6.3619    0.7178    3.2189 C   0  0  0  0  0  0  0  0  0  0  0  0
    5.8083   -0.0131    2.1546 C   0  0  0  0  0  0  0  0  0  0  0  0
    6.2890    0.1208    0.8415 C   0  0  0  0  0  0  0  0  0  0  0  0
    5.7296   -0.6161   -0.2176 C   0  0  0  0  0  0  0  0  0  0  0  0
    6.2098   -0.4824   -1.5457 C   0  0  0  0  0  0  0  0  0  0  0  0
    5.8743    0.5771    4.5311 C   0  0  0  0  0  0  0  0  0  0  0  0
    6.4328    1.3135    5.6034 C   0  0  0  0  0  0  0  0  0  0  0  0
    6.0996    1.3287    6.9997 C   0  0  0  0  0  0  0  0  0  0  0  0
    6.8860    2.1908    7.7273 C   0  0  0  0  0  0  0  0  0  0  0  0
    8.0301    2.9901    6.7483 S   0  0  0  0  0  0  0  0  0  0  0  0
    7.4842    2.1866    5.3242 C   0  0  0  0  0  0  0  0  0  0  0  0
    7.9866    2.3418    4.0174 C   0  0  0  0  0  0  0  0  0  0  0  0
    5.1086   -3.4602   -3.0284 C   0  0  0  0  0  0  0  0  0  0  0  0
    4.1434   -4.4503   -3.1696 C   0  0  0  0  0  0  0  0  0  0  0  0
    2.7955   -4.1012   -3.2108 C   0  0  0  0  0  0  0  0  0  0  0  0
    2.3902   -2.7601   -3.1115 C   0  0  0  0  0  0  0  0  0  0  0  0
    1.0247   -2.4305   -3.1525 C   0  0  0  0  0  0  0  0  0  0  0  0
    0.5833   -1.1015   -3.0560 C   0  0  0  0  0  0  0  0  0  0  0  0
   -0.7828   -0.7750   -3.0949 C   0  0  0  0  0  0  0  0  0  0  0  0
   -1.2216    0.5564   -2.9980 C   0  0  0  0  0  0  0  0  0  0  0  0
   -2.5876    0.8850   -3.0363 C   0  0  0  0  0  0  0  0  0  0  0  0
   -3.0496    2.2204   -2.9355 C   0  0  0  0  0  0  0  0  0  0  0  0
   -6.0229    0.7713   -2.0331 C   0  0  0  0  0  0  0  0  0  0  0  0
   -5.6900    0.6858   -0.6569 C   0  0  0  0  0  0  0  0  0  0  0  0
   -6.3495   -0.2113    0.2019 C   0  0  0  0  0  0  0  0  0  0  0  0
   -6.0148   -0.2933    1.5635 C   0  0  0  0  0  0  0  0  0  0  0  0
   -8.3452   -2.9131    2.7747 C   0  0  0  0  0  0  0  0  0  0  0  0
   -7.9881   -2.9728    4.1361 C   0  0  0  0  0  0  0  0  0  0  0  0
   -8.6712   -3.9948    5.3446 S   0  0  0  0  0  0  0  0  0  0  0  0
   -7.7187   -3.7359    7.5718 H   0  0  0  0  0  0  0  0  0  0  0  0
   -6.0794   -1.8834    6.6841 H   0  0  0  0  0  0  0  0  0  0  0  0
   -5.5434   -0.6210    4.1926 H   0  0  0  0  0  0  0  0  0  0  0  0
   -8.7995   -2.5771    0.1644 H   0  0  0  0  0  0  0  0  0  0  0  0
   -8.4850   -1.6073   -2.0762 H   0  0  0  0  0  0  0  0  0  0  0  0
   -5.8896    1.8482   -5.2483 H   0  0  0  0  0  0  0  0  0  0  0  0
   -5.8520    4.2197   -2.8777 H   0  0  0  0  0  0  0  0  0  0  0  0
   -4.1307    5.9740   -2.6488 H   0  0  0  0  0  0  0  0  0  0  0  0
   -1.7463    5.3744   -2.5931 H   0  0  0  0  0  0  0  0  0  0  0  0
    0.0217    3.7076   -2.6560 H   0  0  0  0  0  0  0  0  0  0  0  0
    1.8278    2.0531   -2.7127 H   0  0  0  0  0  0  0  0  0  0  0  0
    3.6191    0.4065   -2.7757 H   0  0  0  0  0  0  0  0  0  0  0  0
    6.4315   -1.0223   -4.8887 H   0  0  0  0  0  0  0  0  0  0  0  0
    8.6534    1.8370   -0.9369 H   0  0  0  0  0  0  0  0  0  0  0  0
    8.7229    2.4243    1.4524 H   0  0  0  0  0  0  0  0  0  0  0  0
    4.9862   -0.6999    2.3511 H   0  0  0  0  0  0  0  0  0  0  0  0
    4.9084   -1.3045   -0.0265 H   0  0  0  0  0  0  0  0  0  0  0  0
    5.0547   -0.1073    4.7380 H   0  0  0  0  0  0  0  0  0  0  0  0
    5.3144    0.7293    7.4436 H   0  0  0  0  0  0  0  0  0  0  0  0
    6.8432    2.3898    8.7893 H   0  0  0  0  0  0  0  0  0  0  0  0
    8.8075    3.0309    3.8363 H   0  0  0  0  0  0  0  0  0  0  0  0
    6.1589   -3.7419   -2.9898 H   0  0  0  0  0  0  0  0  0  0  0  0
    4.4391   -5.4935   -3.2455 H   0  0  0  0  0  0  0  0  0  0  0  0
    2.0561   -4.8924   -3.3217 H   0  0  0  0  0  0  0  0  0  0  0  0
    0.2880   -3.2252   -3.2613 H   0  0  0  0  0  0  0  0  0  0  0  0
   -1.5181   -1.5709   -3.2016 H   0  0  0  0  0  0  0  0  0  0  0  0
   -3.3087    0.0765   -3.1476 H   0  0  0  0  0  0  0  0  0  0  0  0
   -4.9045    1.3315   -0.2689 H   0  0  0  0  0  0  0  0  0  0  0  0
   -5.2296    0.3506    1.9570 H   0  0  0  0  0  0  0  0  0  0  0  0
   -9.1313   -3.5619    2.3970 H   0  0  0  0  0  0  0  0  0  0  0  0
  1  2  4  0
  2  3  4  0
  3  4  4  0
  4  5  4  0
  5  6  4  0
  6  7  4  0
  7  8  4  0
  8  9  4  0
  9 10  4  0
 10 11  4  0
 11 12  4  0
 12 13  4  0
 13 14  1  0
 14 15  4  0
 15 16  4  0
 16 17  4  0
 17 18  4  0
 18 19  4  0
 19 20  4  0
 20 21  4  0
 21 22  4  0
 22 23  4  0
 23 24  4  0
 24 25  4  0
 25 26  1  0
 26 27  4  0
 27 28  4  0
 28 29  4  0
 29 30  4  0
 30 31  4  0
 31 32  4  0
 32 33  4  0
 33 34  4  0
 34 35  4  0
 35 36  4  0
 36 37  4  0
 37 38  4  0
 34 39  4  0
 39 40  4  0
 40 41  4  0
 41 42  4  0
 42 43  4  0
 43 44  4  0
 44 45  4  0
 25 46  4  0
 46 47  4  0
 47 48  4  0
 48 49  4  0
 49 50  4  0
 50 51  4  0
 51 52  4  0
 52 53  4  0
 53 54  4  0
 54 55  4  0
 13 56  4  0
 56 57  4  0
 57 58  4  0
 58 59  4  0
  6 60  4  0
 60 61  4  0
 61 62  4  0
 62  1  4  0
 61  3  4  0
 59  5  4  0
 58  8  4  0
 56 10  4  0
 55 14  4  0
 55 18  4  0
 53 20  4  0
 51 22  4  0
 49 24  4  0
 38 26  4  0
 44 40  4  0
 38 29  4  0
 36 31  4  0
 45 33  4  0
  1 63  1  0
  2 64  1  0
  4 65  1  0
  7 66  1  0
  9 67  1  0
 12 68  1  0
 15 69  1  0
 16 70  1  0
 17 71  1  0
 19 72  1  0
 21 73  1  0
 23 74  1  0
 27 75  1  0
 30 76  1  0
 32 77  1  0
 35 78  1  0
 37 79  1  0
 39 80  1  0
 41 81  1  0
 42 82  1  0
 45 83  1  0
 46 84  1  0
 47 85  1  0
 48 86  1  0
 50 87  1  0
 52 88  1  0
 54 89  1  0
 57 90  1  0
 59 91  1  0
 60 92  1  0
M  END
