
     RDKit          3D

 92106  0  0  0  0  0  0  0  0999 V2000
    7.1055    5.4424   -0.8924 C   0  0  0  0  0  0  0  0  0  0  0  0
    6.3856    4.4080   -1.4432 C   0  0  0  0  0  0  0  0  0  0  0  0
    6.5672    3.1687   -0.7428 C   0  0  0  0  0  0  0  0  0  0  0  0
    6.0175    1.8848   -0.9774 C   0  0  0  0  0  0  0  0  0  0  0  0
    6.3223    0.7632   -0.1625 C   0  0  0  0  0  0  0  0  0  0  0  0
    7.2051    0.9649    0.9138 C   0  0  0  0  0  0  0  0  0  0  0  0
    7.5355   -0.1088    1.7493 C   0  0  0  0  0  0  0  0  0  0  0  0
    7.0143   -1.3936    1.5553 C   0  0  0  0  0  0  0  0  0  0  0  0
    7.3855   -2.4288    2.4318 C   0  0  0  0  0  0  0  0  0  0  0  0
    6.8670   -3.7227    2.2483 C   0  0  0  0  0  0  0  0  0  0  0  0
    7.1907   -5.1213    3.2011 S   0  0  0  0  0  0  0  0  0  0  0  0
    6.1695   -6.0977    2.2463 C   0  0  0  0  0  0  0  0  0  0  0  0
    5.5900   -5.3863    1.2220 C   0  0  0  0  0  0  0  0  0  0  0  0
    5.9854   -4.0068    1.2095 C   0  0  0  0  0  0  0  0  0  0  0  0
    5.6254   -2.9499    0.3384 C   0  0  0  0  0  0  0  0  0  0  0  0
    6.1283   -1.6311    0.4891 C   0  0  0  0  0  0  0  0  0  0  0  0
    5.7800   -0.5451   -0.3781 C   0  0  0  0  0  0  0  0  0  0  0  0
    4.8520   -0.7804   -1.5162 C   0  0  0  0  0  0  0  0  0  0  0  0
    5.4043   -1.1612   -2.7543 C   0  0  0  0  0  0  0  0  0  0  0  0
    4.5911   -1.3997   -3.8561 C   0  0  0  0  0  0  0  0  0  0  0  0
    3.2112   -1.2619   -3.7381 C   0  0  0  0  0  0  0  0  0  0  0  0
    2.6239   -0.8842   -2.5209 C   0  0  0  0  0  0  0  0  0  0  0  0
    1.2285   -0.7518   -2.4226 C   0  0  0  0  0  0  0  0  0  0  0  0
    0.6065   -0.3743   -1.2227 C   0  0  0  0  0  0  0  0  0  0  0  0
   -0.7891   -0.2418   -1.1277 C   0  0  0  0  0  0  0  0  0  0  0  0
   -1.4091    0.1377    0.0746 C   0  0  0  0  0  0  0  0  0  0  0  0
   -2.8048    0.2712    0.1706 C   0  0  0  0  0  0  0  0  0  0  0  0
   -3.4488    0.6534    1.3711 C   0  0  0  0  0  0  0  0  0  0  0  0
   -4.8624    0.7956    1.4936 C   0  0  0  0  0  0  0  0  0  0  0  0
   -5.7865    0.5486    0.3550 C   0  0  0  0  0  0  0  0  0  0  0  0
   -6.3145   -0.7661    0.1424 C   0  0  0  0  0  0  0  0  0  0  0  0
   -6.0002   -1.8812    0.9625 C   0  0  0  0  0  0  0  0  0  0  0  0
   -6.5326   -3.1724    0.7293 C   0  0  0  0  0  0  0  0  0  0  0  0
   -6.3365   -4.4075    1.4332 C   0  0  0  0  0  0  0  0  0  0  0  0
   -7.0419   -5.4522    0.8838 C   0  0  0  0  0  0  0  0  0  0  0  0
   -7.9440   -4.9641   -0.4787 S   0  0  0  0  0  0  0  0  0  0  0  0
   -7.3963   -3.3354   -0.3498 C   0  0  0  0  0  0  0  0  0  0  0  0
   -7.7313   -2.2555   -1.1856 C   0  0  0  0  0  0  0  0  0  0  0  0
   -7.1899   -0.9816   -0.9370 C   0  0  0  0  0  0  0  0  0  0  0  0
   -7.5272    0.0855   -1.7784 C   0  0  0  0  0  0  0  0  0  0  0  0
   -7.0189    1.3762   -1.5882 C   0  0  0  0  0  0  0  0  0  0  0  0
   -6.1401    1.6271   -0.5191 C   0  0  0  0  0  0  0  0  0  0  0  0
   -5.6477    2.9504   -0.3738 C   0  0  0  0  0  0  0  0  0  0  0  0
   -6.0115    3.9994   -1.2529 C   0  0  0  0  0  0  0  0  0  0  0  0
   -5.6253    5.3814   -1.2725 C   0  0  0  0  0  0  0  0  0  0  0  0
   -6.2066    6.0832   -2.3025 C   0  0  0  0  0  0  0  0  0  0  0  0
   -7.2168    5.0937   -3.2557 S   0  0  0  0  0  0  0  0  0  0  0  0
   -6.8865    3.7028   -2.2937 C   0  0  0  0  0  0  0  0  0  0  0  0
   -7.3939    2.4037   -2.4721 C   0  0  0  0  0  0  0  0  0  0  0  0
   -5.4175    1.1811    2.7287 C   0  0  0  0  0  0  0  0  0  0  0  0
   -4.6060    1.4248    3.8308 C   0  0  0  0  0  0  0  0  0  0  0  0
   -3.2257    1.2867    3.7160 C   0  0  0  0  0  0  0  0  0  0  0  0
   -2.6358    0.9043    2.5016 C   0  0  0  0  0  0  0  0  0  0  0  0
   -1.2403    0.7699    2.4057 C   0  0  0  0  0  0  0  0  0  0  0  0
   -0.6167    0.3902    1.2068 C   0  0  0  0  0  0  0  0  0  0  0  0
    0.7792    0.2571    1.1116 C   0  0  0  0  0  0  0  0  0  0  0  0
    1.3997   -0.1227   -0.0908 C   0  0  0  0  0  0  0  0  0  0  0  0
    2.7957   -0.2566   -0.1886 C   0  0  0  0  0  0  0  0  0  0  0  0
    3.4387   -0.6365   -1.3907 C   0  0  0  0  0  0  0  0  0  0  0  0
    7.7620    2.2315    1.1648 C   0  0  0  0  0  0  0  0  0  0  0  0
    7.4366    3.3179    0.3338 C   0  0  0  0  0  0  0  0  0  0  0  0
    8.0038    4.9393    0.4668 S   0  0  0  0  0  0  0  0  0  0  0  0
    7.1464    6.4709   -1.2237 H   0  0  0  0  0  0  0  0  0  0  0  0
    5.7520    4.5271   -2.3136 H   0  0  0  0  0  0  0  0  0  0  0  0
    5.3363    1.7807   -1.8193 H   0  0  0  0  0  0  0  0  0  0  0  0
    8.2216    0.0615    2.5794 H   0  0  0  0  0  0  0  0  0  0  0  0
    8.0716   -2.2416    3.2543 H   0  0  0  0  0  0  0  0  0  0  0  0
    6.0412   -7.1456    2.4801 H   0  0  0  0  0  0  0  0  0  0  0  0
    4.9082   -5.8288    0.5062 H   0  0  0  0  0  0  0  0  0  0  0  0
    4.9331   -3.1830   -0.4679 H   0  0  0  0  0  0  0  0  0  0  0  0
    6.4827   -1.2728   -2.8561 H   0  0  0  0  0  0  0  0  0  0  0  0
    5.0318   -1.6934   -4.8053 H   0  0  0  0  0  0  0  0  0  0  0  0
    2.5908   -1.4532   -4.6116 H   0  0  0  0  0  0  0  0  0  0  0  0
    0.6115   -0.9459   -3.2987 H   0  0  0  0  0  0  0  0  0  0  0  0
   -1.4042   -0.4364   -2.0048 H   0  0  0  0  0  0  0  0  0  0  0  0
   -3.4039    0.0710   -0.7167 H   0  0  0  0  0  0  0  0  0  0  0  0
   -5.3236   -1.7665    1.8067 H   0  0  0  0  0  0  0  0  0  0  0  0
   -5.7023   -4.5152    2.3046 H   0  0  0  0  0  0  0  0  0  0  0  0
   -7.0704   -6.4804    1.2175 H   0  0  0  0  0  0  0  0  0  0  0  0
   -8.4085   -2.4184   -2.0206 H   0  0  0  0  0  0  0  0  0  0  0  0
   -8.2071   -0.0952   -2.6113 H   0  0  0  0  0  0  0  0  0  0  0  0
   -4.9599    3.1929    0.4336 H   0  0  0  0  0  0  0  0  0  0  0  0
   -4.9487    5.8321   -0.5567 H   0  0  0  0  0  0  0  0  0  0  0  0
   -6.0859    7.1310   -2.5414 H   0  0  0  0  0  0  0  0  0  0  0  0
   -8.0739    2.2061   -3.2971 H   0  0  0  0  0  0  0  0  0  0  0  0
   -6.4962    1.2912    2.8283 H   0  0  0  0  0  0  0  0  0  0  0  0
   -5.0482    1.7217    4.7782 H   0  0  0  0  0  0  0  0  0  0  0  0
   -2.6075    1.4817    4.5902 H   0  0  0  0  0  0  0  0  0  0  0  0
   -0.6249    0.9651    3.2826 H   0  0  0  0  0  0  0  0  0  0  0  0
    1.3946    0.4533    1.9881 H   0  0  0  0  0  0  0  0  0  0  0  0
    3.3959   -0.0585    0.6985 H   0  0  0  0  0  0  0  0  0  0  0  0
    8.4443    2.3835    1.9976 H   0  0  0  0  0  0  0  0  0  0  0  0
  1  2  4  0
  2  3  4  0
  3  4  4  0
  4  5  4  0
  5  6  4  0
  6  7  4  0
  7  8  4  0
  8  9  4  0
  9 10  4  0
 10 11  4  0
 11 12  4  0
 12 13  4  0
 13 14  4  0
 14 15  4  0
 15 16  4  0
 16 17  4  0
 17 18  1  0
 18 19  4  0
 19 20  4  0
 20 21  4  0
 21 22  4  0
 22 23  4  0
 23 24  4  0
 24 25  4  0
 25 26  4  0
 26 27  4  0
 27 28  4  0
 28 29  4  0
 29 30  1  0
 30 31  4  0
 31 32  4  0
 32 33  4  0
 33 34  4  0
 34 35  4  0
 35 36  4  0
 36 37  4  0
 37 38  4  0
 38 39  4  0
 39 40  4  0
 40 41  4  0
 41 42  4  0
 42 43  4  0
 43 44  4  0
 44 45  4  0
 45 46  4  0
 46 47  4  0
 47 48  4  0
 48 49  4  0
 29 50  4  0
 50 51  4  0
 51 52  4  0
 52 53  4  0
 53 54  4  0
 54 55  4  0
 55 56  4  0
 56 57  4  0
 57 58  4  0
 58 59  4  0
  6 60  4  0
 60 61  4  0
 61 62  4  0
 62  1  4  0
 61  3  4  0
 17  5  4  0
 59 18  4  0
 16  8  4  0
 59 22  4  0
 14 10  4  0
 57 24  4  0
 55 26  4  0
 53 28  4  0
 42 30  4  0
 48 44  4  0
 39 31  4  0
 49 41  4  0
 37 33  4  0
  1 63  1  0
  2 64  1  0
  4 65  1  0
  7 66  1  0
  9 67  1  0
 12 68  1  0
 13 69  1  0
 15 70  1  0
 19 71  1  0
 20 72  1  0
 21 73  1  0
 23 74  1  0
 25 75  1  0
 27 76  1  0
 32 77  1  0
 34 78  1  0
 35 79  1  0
 38 80  1  0
 40 81  1  0
 43 82  1  0
 45 83  1  0
 46 84  1  0
 49 85  1  0
 50 86  1  0
 51 87  1  0
 52 88  1  0
 54 89  1  0
 56 90  1  0
 58 91  1  0
 60 92  1  0
M  END
