
     RDKit          3D

 92106  0  0  0  0  0  0  0  0999 V2000
   -9.8207   -5.0636   -0.3536 C   0  0  0  0  0  0  0  0  0  0  0  0
  -10.1314   -3.8639    0.2422 C   0  0  0  0  0  0  0  0  0  0  0  0
   -9.2215   -2.8122   -0.1137 C   0  0  0  0  0  0  0  0  0  0  0  0
   -9.1896   -1.4512    0.2741 C   0  0  0  0  0  0  0  0  0  0  0  0
   -8.1924   -0.5814   -0.2047 C   0  0  0  0  0  0  0  0  0  0  0  0
   -8.1573    0.7678    0.1769 C   0  0  0  0  0  0  0  0  0  0  0  0
   -7.1676    1.6467   -0.2965 C   0  0  0  0  0  0  0  0  0  0  0  0
   -6.1760    1.1839   -1.1806 C   0  0  0  0  0  0  0  0  0  0  0  0
   -6.2241   -0.1819   -1.5523 C   0  0  0  0  0  0  0  0  0  0  0  0
   -7.2115   -1.0647   -1.0805 C   0  0  0  0  0  0  0  0  0  0  0  0
   -7.2273   -2.4138   -1.4736 C   0  0  0  0  0  0  0  0  0  0  0  0
   -8.2334   -3.2703   -0.9852 C   0  0  0  0  0  0  0  0  0  0  0  0
   -8.4359   -4.9447   -1.3411 S   0  0  0  0  0  0  0  0  0  0  0  0
   -5.1783    2.0891   -1.6591 C   0  0  0  0  0  0  0  0  0  0  0  0
   -4.1185    1.6680   -2.6012 C   0  0  0  0  0  0  0  0  0  0  0  0
   -4.3808    1.7676   -3.9810 C   0  0  0  0  0  0  0  0  0  0  0  0
   -3.4276    1.3887   -4.9191 C   0  0  0  0  0  0  0  0  0  0  0  0
   -2.1953    0.9027   -4.4929 C   0  0  0  0  0  0  0  0  0  0  0  0
   -1.8964    0.7882   -3.1267 C   0  0  0  0  0  0  0  0  0  0  0  0
   -0.6450    0.2963   -2.7175 C   0  0  0  0  0  0  0  0  0  0  0  0
   -0.3102    0.1678   -1.3606 C   0  0  0  0  0  0  0  0  0  0  0  0
    0.9424   -0.3237   -0.9536 C   0  0  0  0  0  0  0  0  0  0  0  0
    1.2742   -0.4511    0.4061 C   0  0  0  0  0  0  0  0  0  0  0  0
    2.5257   -0.9435    0.8162 C   0  0  0  0  0  0  0  0  0  0  0  0
    2.8779   -1.0804    2.1806 C   0  0  0  0  0  0  0  0  0  0  0  0
    4.1391   -1.5783    2.6228 C   0  0  0  0  0  0  0  0  0  0  0  0
    5.1988   -1.9964    1.6800 C   0  0  0  0  0  0  0  0  0  0  0  0
    5.2451   -3.3534    1.2485 C   0  0  0  0  0  0  0  0  0  0  0  0
    4.1789   -4.6531    1.6856 S   0  0  0  0  0  0  0  0  0  0  0  0
    5.0092   -5.7784    0.7178 C   0  0  0  0  0  0  0  0  0  0  0  0
    6.0746   -5.2060    0.0683 C   0  0  0  0  0  0  0  0  0  0  0  0
    6.2238   -3.8081    0.3620 C   0  0  0  0  0  0  0  0  0  0  0  0
    7.1838   -2.8836   -0.1066 C   0  0  0  0  0  0  0  0  0  0  0  0
    7.1696   -1.5402    0.2962 C   0  0  0  0  0  0  0  0  0  0  0  0
    6.1828   -1.0834    1.1884 C   0  0  0  0  0  0  0  0  0  0  0  0
    6.2206    0.2846    1.5538 C   0  0  0  0  0  0  0  0  0  0  0  0
    7.1917    1.1766    1.0658 C   0  0  0  0  0  0  0  0  0  0  0  0
    7.1964    2.5280    1.4515 C   0  0  0  0  0  0  0  0  0  0  0  0
    8.1857    3.3939    0.9456 C   0  0  0  0  0  0  0  0  0  0  0  0
    8.3721    5.0731    1.2887 S   0  0  0  0  0  0  0  0  0  0  0  0
    9.7419    5.2032    0.2817 C   0  0  0  0  0  0  0  0  0  0  0  0
   10.0608    4.0032   -0.3094 C   0  0  0  0  0  0  0  0  0  0  0  0
    9.1683    2.9426    0.0643 C   0  0  0  0  0  0  0  0  0  0  0  0
    9.1475    1.5790   -0.3152 C   0  0  0  0  0  0  0  0  0  0  0  0
    8.1669    0.6999    0.1805 C   0  0  0  0  0  0  0  0  0  0  0  0
    8.1428   -0.6519   -0.1937 C   0  0  0  0  0  0  0  0  0  0  0  0
    4.4015   -1.6766    4.0024 C   0  0  0  0  0  0  0  0  0  0  0  0
    3.4483   -1.2967    4.9401 C   0  0  0  0  0  0  0  0  0  0  0  0
    2.2158   -0.8115    4.5133 C   0  0  0  0  0  0  0  0  0  0  0  0
    1.9175   -0.6981    3.1469 C   0  0  0  0  0  0  0  0  0  0  0  0
    0.6670   -0.2058    2.7368 C   0  0  0  0  0  0  0  0  0  0  0  0
    0.3329   -0.0781    1.3796 C   0  0  0  0  0  0  0  0  0  0  0  0
   -0.9192    0.4133    0.9726 C   0  0  0  0  0  0  0  0  0  0  0  0
   -1.2517    0.5404   -0.3869 C   0  0  0  0  0  0  0  0  0  0  0  0
   -2.5039    1.0324   -0.7960 C   0  0  0  0  0  0  0  0  0  0  0  0
   -2.8571    1.1697   -2.1599 C   0  0  0  0  0  0  0  0  0  0  0  0
   -5.2148    3.4440   -1.2199 C   0  0  0  0  0  0  0  0  0  0  0  0
   -4.1329    4.7355   -1.6419 S   0  0  0  0  0  0  0  0  0  0  0  0
   -4.9583    5.8630   -0.6725 C   0  0  0  0  0  0  0  0  0  0  0  0
   -6.0343    5.2977   -0.0345 C   0  0  0  0  0  0  0  0  0  0  0  0
   -6.1963    3.9036   -0.3390 C   0  0  0  0  0  0  0  0  0  0  0  0
   -7.1711    2.9875    0.1144 C   0  0  0  0  0  0  0  0  0  0  0  0
  -10.3420   -6.0062   -0.2562 H   0  0  0  0  0  0  0  0  0  0  0  0
  -10.9773   -3.7369    0.9066 H   0  0  0  0  0  0  0  0  0  0  0  0
   -9.9552   -1.0828    0.9529 H   0  0  0  0  0  0  0  0  0  0  0  0
   -8.9200    1.1423    0.8584 H   0  0  0  0  0  0  0  0  0  0  0  0
   -5.4678   -0.5757   -2.2312 H   0  0  0  0  0  0  0  0  0  0  0  0
   -6.4715   -2.8032   -2.1513 H   0  0  0  0  0  0  0  0  0  0  0  0
   -5.3410    2.1483   -4.3252 H   0  0  0  0  0  0  0  0  0  0  0  0
   -3.6432    1.4744   -5.9807 H   0  0  0  0  0  0  0  0  0  0  0  0
   -1.4621    0.6132   -5.2431 H   0  0  0  0  0  0  0  0  0  0  0  0
    0.0864    0.0082   -3.4710 H   0  0  0  0  0  0  0  0  0  0  0  0
    1.6723   -0.6117   -1.7080 H   0  0  0  0  0  0  0  0  0  0  0  0
    3.2433   -1.2287    0.0485 H   0  0  0  0  0  0  0  0  0  0  0  0
    4.6776   -6.8065    0.6696 H   0  0  0  0  0  0  0  0  0  0  0  0
    6.7274   -5.7601   -0.5951 H   0  0  0  0  0  0  0  0  0  0  0  0
    7.9473   -3.2365   -0.7970 H   0  0  0  0  0  0  0  0  0  0  0  0
    5.4688    0.6732    2.2406 H   0  0  0  0  0  0  0  0  0  0  0  0
    6.4444    2.9121    2.1364 H   0  0  0  0  0  0  0  0  0  0  0  0
   10.2484    6.1521    0.1701 H   0  0  0  0  0  0  0  0  0  0  0  0
   10.8992    3.8823   -0.9842 H   0  0  0  0  0  0  0  0  0  0  0  0
    9.9079    1.2155   -1.0022 H   0  0  0  0  0  0  0  0  0  0  0  0
    8.9008   -1.0210   -0.8834 H   0  0  0  0  0  0  0  0  0  0  0  0
    5.3623   -2.0559    4.3470 H   0  0  0  0  0  0  0  0  0  0  0  0
    3.6643   -1.3807    6.0017 H   0  0  0  0  0  0  0  0  0  0  0  0
    1.4818   -0.5213    5.2623 H   0  0  0  0  0  0  0  0  0  0  0  0
   -0.0644    0.0844    3.4896 H   0  0  0  0  0  0  0  0  0  0  0  0
   -1.6485    0.7022    1.7272 H   0  0  0  0  0  0  0  0  0  0  0  0
   -3.2212    1.3171   -0.0279 H   0  0  0  0  0  0  0  0  0  0  0  0
   -4.6171    6.8875   -0.6155 H   0  0  0  0  0  0  0  0  0  0  0  0
   -6.6863    5.8545    0.6274 H   0  0  0  0  0  0  0  0  0  0  0  0
   -7.9379    3.3450    0.7991 H   0  0  0  0  0  0  0  0  0  0  0  0
  1  2  4  0
  2  3  4  0
  3  4  4  0
  4  5  4  0
  5  6  4  0
  6  7  4  0
  7  8  4  0
  8  9  4  0
  9 10  4  0
 10 11  4  0
 11 12  4  0
 12 13  4  0
  8 14  4  0
 14 15  1  0
 15 16  4  0
 16 17  4  0
 17 18  4  0
 18 19  4  0
 19 20  4  0
 20 21  4  0
 21 22  4  0
 22 23  4  0
 23 24  4  0
 24 25  4  0
 25 26  4  0
 26 27  1  0
 27 28  4  0
 28 29  4  0
 29 30  4  0
 30 31  4  0
 31 32  4  0
 32 33  4  0
 33 34  4  0
 34 35  4  0
 35 36  4  0
 36 37  4  0
 37 38  4  0
 38 39  4  0
 39 40  4  0
 40 41  4  0
 41 42  4  0
 42 43  4  0
 43 44  4  0
 44 45  4  0
 45 46  4  0
 26 47  4  0
 47 48  4  0
 48 49  4  0
 49 50  4  0
 50 51  4  0
 51 52  4  0
 52 53  4  0
 53 54  4  0
 54 55  4  0
 55 56  4  0
 14 57  4  0
 57 58  4  0
 58 59  4  0
 59 60  4  0
 60 61  4  0
 61 62  4  0
 13  1  4  0
 56 15  4  0
 61 57  4  0
 12  3  4  0
 56 19  4  0
 10  5  4  0
 54 21  4  0
 62  7  4  0
 52 23  4  0
 50 25  4  0
 35 27  4  0
 45 37  4  0
 32 28  4  0
 46 34  4  0
 43 39  4  0
  1 63  1  0
  2 64  1  0
  4 65  1  0
  6 66  1  0
  9 67  1  0
 11 68  1  0
 16 69  1  0
 17 70  1  0
 18 71  1  0
 20 72  1  0
 22 73  1  0
 24 74  1  0
 30 75  1  0
 31 76  1  0
 33 77  1  0
 36 78  1  0
 38 79  1  0
 41 80  1  0
 42 81  1  0
 44 82  1  0
 46 83  1  0
 47 84  1  0
 48 85  1  0
 49 86  1  0
 51 87  1  0
 53 88  1  0
 55 89  1  0
 59 90  1  0
 60 91  1  0
 62 92  1  0
M  END
