
     RDKit          3D

 86 98  0  0  0  0  0  0  0  0999 V2000
  -10.9242    0.9875   -2.5400 C   0  0  0  0  0  0  0  0  0  0  0  0
  -10.4722    1.7445   -1.4580 C   0  0  0  0  0  0  0  0  0  0  0  0
   -9.3786    1.3173   -0.6868 C   0  0  0  0  0  0  0  0  0  0  0  0
   -8.9160    2.0722    0.4042 C   0  0  0  0  0  0  0  0  0  0  0  0
   -7.8266    1.6593    1.1818 C   0  0  0  0  0  0  0  0  0  0  0  0
   -7.4208    2.4792    2.2649 C   0  0  0  0  0  0  0  0  0  0  0  0
   -6.3272    1.9617    2.9572 C   0  0  0  0  0  0  0  0  0  0  0  0
   -5.7662    2.5923    4.0385 C   0  0  0  0  0  0  0  0  0  0  0  0
   -4.4389    1.6949    4.6592 S   0  0  0  0  0  0  0  0  0  0  0  0
   -4.6136    0.4545    3.4720 C   0  0  0  0  0  0  0  0  0  0  0  0
   -3.6796   -0.6785    3.4961 C   0  0  0  0  0  0  0  0  0  0  0  0
   -3.9389   -1.7213    4.4010 C   0  0  0  0  0  0  0  0  0  0  0  0
   -3.1051   -2.8318    4.4576 C   0  0  0  0  0  0  0  0  0  0  0  0
   -2.0052   -2.9134    3.6079 C   0  0  0  0  0  0  0  0  0  0  0  0
   -1.7210   -1.8895    2.6902 C   0  0  0  0  0  0  0  0  0  0  0  0
   -0.6072   -1.9937    1.8396 C   0  0  0  0  0  0  0  0  0  0  0  0
   -0.2929   -0.9912    0.9090 C   0  0  0  0  0  0  0  0  0  0  0  0
    0.8210   -1.0995    0.0593 C   0  0  0  0  0  0  0  0  0  0  0  0
    1.1362   -0.0926   -0.8687 C   0  0  0  0  0  0  0  0  0  0  0  0
    2.2518   -0.1983   -1.7173 C   0  0  0  0  0  0  0  0  0  0  0  0
    2.5916    0.8085   -2.6537 C   0  0  0  0  0  0  0  0  0  0  0  0
    3.7175    0.7373   -3.5227 C   0  0  0  0  0  0  0  0  0  0  0  0
    4.6475   -0.3999   -3.5017 C   0  0  0  0  0  0  0  0  0  0  0  0
    5.6853   -0.6996   -2.6435 C   0  0  0  0  0  0  0  0  0  0  0  0
    6.0564    0.0989   -1.5567 C   0  0  0  0  0  0  0  0  0  0  0  0
    7.1500   -0.4277   -0.8238 C   0  0  0  0  0  0  0  0  0  0  0  0
    7.6105    0.2847    0.2912 C   0  0  0  0  0  0  0  0  0  0  0  0
    8.6899   -0.1683    1.0685 C   0  0  0  0  0  0  0  0  0  0  0  0
    9.1433    0.5576    2.1828 C   0  0  0  0  0  0  0  0  0  0  0  0
   10.2166    0.0985    2.9479 C   0  0  0  0  0  0  0  0  0  0  0  0
   10.8508   -1.0922    2.6096 C   0  0  0  0  0  0  0  0  0  0  0  0
   10.4119   -1.8246    1.5056 C   0  0  0  0  0  0  0  0  0  0  0  0
    9.3334   -1.3754    0.7252 C   0  0  0  0  0  0  0  0  0  0  0  0
    8.8853   -2.1050   -0.3888 C   0  0  0  0  0  0  0  0  0  0  0  0
    7.8119   -1.6694   -1.1768 C   0  0  0  0  0  0  0  0  0  0  0  0
    7.4219   -2.4640   -2.2841 C   0  0  0  0  0  0  0  0  0  0  0  0
    6.3441   -1.9261   -2.9858 C   0  0  0  0  0  0  0  0  0  0  0  0
    5.8020   -2.5312   -4.0910 C   0  0  0  0  0  0  0  0  0  0  0  0
    4.4897   -1.6160   -4.7169 S   0  0  0  0  0  0  0  0  0  0  0  0
    3.9829    1.7839   -4.4215 C   0  0  0  0  0  0  0  0  0  0  0  0
    3.1507    2.8958   -4.4781 C   0  0  0  0  0  0  0  0  0  0  0  0
    2.0462    2.9757   -3.6342 C   0  0  0  0  0  0  0  0  0  0  0  0
    1.7560    1.9485   -2.7223 C   0  0  0  0  0  0  0  0  0  0  0  0
    0.6380    2.0514   -1.8768 C   0  0  0  0  0  0  0  0  0  0  0  0
    0.3187    1.0468   -0.9498 C   0  0  0  0  0  0  0  0  0  0  0  0
   -0.7969    1.1538   -0.1017 C   0  0  0  0  0  0  0  0  0  0  0  0
   -1.1116    0.1474    0.8275 C   0  0  0  0  0  0  0  0  0  0  0  0
   -2.2255    0.2529    1.6788 C   0  0  0  0  0  0  0  0  0  0  0  0
   -2.5586   -0.7510    2.6211 C   0  0  0  0  0  0  0  0  0  0  0  0
   -5.6689    0.7315    2.6281 C   0  0  0  0  0  0  0  0  0  0  0  0
   -6.0554   -0.0919    1.5659 C   0  0  0  0  0  0  0  0  0  0  0  0
   -7.1645    0.4137    0.8428 C   0  0  0  0  0  0  0  0  0  0  0  0
   -7.6404   -0.3248   -0.2482 C   0  0  0  0  0  0  0  0  0  0  0  0
   -8.7344    0.1068   -1.0163 C   0  0  0  0  0  0  0  0  0  0  0  0
   -9.2008   -0.6441   -2.1083 C   0  0  0  0  0  0  0  0  0  0  0  0
  -10.2887   -0.2063   -2.8651 C   0  0  0  0  0  0  0  0  0  0  0  0
  -11.7715    1.3312   -3.1274 H   0  0  0  0  0  0  0  0  0  0  0  0
  -10.9826    2.6751   -1.2202 H   0  0  0  0  0  0  0  0  0  0  0  0
   -9.4235    3.0047    0.6479 H   0  0  0  0  0  0  0  0  0  0  0  0
   -7.9130    3.4088    2.5211 H   0  0  0  0  0  0  0  0  0  0  0  0
   -6.0512    3.5250    4.5054 H   0  0  0  0  0  0  0  0  0  0  0  0
   -4.7995   -1.6682    5.0651 H   0  0  0  0  0  0  0  0  0  0  0  0
   -3.3124   -3.6336    5.1614 H   0  0  0  0  0  0  0  0  0  0  0  0
   -1.3651   -3.7916    3.6681 H   0  0  0  0  0  0  0  0  0  0  0  0
    0.0310   -2.8737    1.9025 H   0  0  0  0  0  0  0  0  0  0  0  0
    1.4568   -1.9813    0.1230 H   0  0  0  0  0  0  0  0  0  0  0  0
    2.8709   -1.0912   -1.6439 H   0  0  0  0  0  0  0  0  0  0  0  0
    5.5616    1.0255   -1.2920 H   0  0  0  0  0  0  0  0  0  0  0  0
    7.1206    1.2177    0.5672 H   0  0  0  0  0  0  0  0  0  0  0  0
    8.6614    1.4916    2.4639 H   0  0  0  0  0  0  0  0  0  0  0  0
   10.5557    0.6715    3.8068 H   0  0  0  0  0  0  0  0  0  0  0  0
   11.6871   -1.4521    3.2033 H   0  0  0  0  0  0  0  0  0  0  0  0
   10.9210   -2.7533    1.2572 H   0  0  0  0  0  0  0  0  0  0  0  0
    9.3910   -3.0355   -0.6428 H   0  0  0  0  0  0  0  0  0  0  0  0
    7.9143   -3.3905   -2.5509 H   0  0  0  0  0  0  0  0  0  0  0  0
    6.0929   -3.4548   -4.5719 H   0  0  0  0  0  0  0  0  0  0  0  0
    4.8467    1.7325   -5.0815 H   0  0  0  0  0  0  0  0  0  0  0  0
    3.3625    3.7001   -5.1776 H   0  0  0  0  0  0  0  0  0  0  0  0
    1.4078    3.8551   -3.6939 H   0  0  0  0  0  0  0  0  0  0  0  0
    0.0024    2.9335   -1.9393 H   0  0  0  0  0  0  0  0  0  0  0  0
   -1.4313    2.0365   -0.1644 H   0  0  0  0  0  0  0  0  0  0  0  0
   -2.8472    1.1439    1.6046 H   0  0  0  0  0  0  0  0  0  0  0  0
   -5.5612   -1.0219    1.3121 H   0  0  0  0  0  0  0  0  0  0  0  0
   -7.1510   -1.2614   -0.5129 H   0  0  0  0  0  0  0  0  0  0  0  0
   -8.7172   -1.5802   -2.3786 H   0  0  0  0  0  0  0  0  0  0  0  0
  -10.6380   -0.7980   -3.7071 H   0  0  0  0  0  0  0  0  0  0  0  0
  1  2  4  0
  2  3  4  0
  3  4  4  0
  4  5  4  0
  5  6  4  0
  6  7  4  0
  7  8  4  0
  8  9  4  0
  9 10  4  0
 10 11  1  0
 11 12  4  0
 12 13  4  0
 13 14  4  0
 14 15  4  0
 15 16  4  0
 16 17  4  0
 17 18  4  0
 18 19  4  0
 19 20  4  0
 20 21  4  0
 21 22  4  0
 22 23  1  0
 23 24  4  0
 24 25  4  0
 25 26  4  0
 26 27  4  0
 27 28  4  0
 28 29  4  0
 29 30  4  0
 30 31  4  0
 31 32  4  0
 32 33  4  0
 33 34  4  0
 34 35  4  0
 35 36  4  0
 36 37  4  0
 37 38  4  0
 38 39  4  0
 22 40  4  0
 40 41  4  0
 41 42  4  0
 42 43  4  0
 43 44  4  0
 44 45  4  0
 45 46  4  0
 46 47  4  0
 47 48  4  0
 48 49  4  0
 10 50  4  0
 50 51  4  0
 51 52  4  0
 52 53  4  0
 53 54  4  0
 54 55  4  0
 55 56  4  0
 56  1  4  0
 54  3  4  0
 52  5  4  0
 50  7  4  0
 49 11  4  0
 49 15  4  0
 47 17  4  0
 45 19  4  0
 43 21  4  0
 39 23  4  0
 37 24  4  0
 35 26  4  0
 33 28  4  0
  1 57  1  0
  2 58  1  0
  4 59  1  0
  6 60  1  0
  8 61  1  0
 12 62  1  0
 13 63  1  0
 14 64  1  0
 16 65  1  0
 18 66  1  0
 20 67  1  0
 25 68  1  0
 27 69  1  0
 29 70  1  0
 30 71  1  0
 31 72  1  0
 32 73  1  0
 34 74  1  0
 36 75  1  0
 38 76  1  0
 40 77  1  0
 41 78  1  0
 42 79  1  0
 44 80  1  0
 46 81  1  0
 48 82  1  0
 51 83  1  0
 53 84  1  0
 55 85  1  0
 56 86  1  0
M  END
