
     RDKit          3D

 84 96  0  0  0  0  0  0  0  0999 V2000
   11.1583    1.9578   -0.5671 C   0  0  0  0  0  0  0  0  0  0  0  0
   10.5172    2.2188    0.6436 C   0  0  0  0  0  0  0  0  0  0  0  0
    9.3740    1.4967    1.0170 C   0  0  0  0  0  0  0  0  0  0  0  0
    8.8733    0.4963    0.1519 C   0  0  0  0  0  0  0  0  0  0  0  0
    9.5244    0.2323   -1.0754 C   0  0  0  0  0  0  0  0  0  0  0  0
   10.6655    0.9714   -1.4208 C   0  0  0  0  0  0  0  0  0  0  0  0
    9.0144   -0.7629   -1.9200 C   0  0  0  0  0  0  0  0  0  0  0  0
    7.8764   -1.4900   -1.5616 C   0  0  0  0  0  0  0  0  0  0  0  0
    7.2183   -1.2410   -0.3494 C   0  0  0  0  0  0  0  0  0  0  0  0
    6.0731   -1.9619    0.0234 C   0  0  0  0  0  0  0  0  0  0  0  0
    5.4156   -1.7066    1.2358 C   0  0  0  0  0  0  0  0  0  0  0  0
    4.2136   -2.4677    1.6120 C   0  0  0  0  0  0  0  0  0  0  0  0
    4.3861   -3.6731    2.3164 C   0  0  0  0  0  0  0  0  0  0  0  0
    3.2916   -4.4365    2.7070 C   0  0  0  0  0  0  0  0  0  0  0  0
    2.0047   -4.0058    2.3989 C   0  0  0  0  0  0  0  0  0  0  0  0
    1.7920   -2.8096    1.6971 C   0  0  0  0  0  0  0  0  0  0  0  0
    0.4843   -2.3914    1.3961 C   0  0  0  0  0  0  0  0  0  0  0  0
    0.2334   -1.2016    0.6952 C   0  0  0  0  0  0  0  0  0  0  0  0
   -1.0750   -0.7852    0.3955 C   0  0  0  0  0  0  0  0  0  0  0  0
   -1.3226    0.4060   -0.3077 C   0  0  0  0  0  0  0  0  0  0  0  0
   -2.6307    0.8236   -0.6093 C   0  0  0  0  0  0  0  0  0  0  0  0
   -2.9020    2.0193   -1.3166 C   0  0  0  0  0  0  0  0  0  0  0  0
   -4.2187    2.4633   -1.6346 C   0  0  0  0  0  0  0  0  0  0  0  0
   -5.4192    1.7052   -1.2485 C   0  0  0  0  0  0  0  0  0  0  0  0
   -6.0389    1.9317   -0.0108 C   0  0  0  0  0  0  0  0  0  0  0  0
   -7.1806    1.2121    0.3737 C   0  0  0  0  0  0  0  0  0  0  0  0
   -7.7168    0.2435   -0.5043 C   0  0  0  0  0  0  0  0  0  0  0  0
   -7.1039    0.0078   -1.7554 C   0  0  0  0  0  0  0  0  0  0  0  0
   -5.9632    0.7431   -2.1119 C   0  0  0  0  0  0  0  0  0  0  0  0
   -7.6480   -0.9571   -2.6137 C   0  0  0  0  0  0  0  0  0  0  0  0
   -8.7841   -1.6821   -2.2454 C   0  0  0  0  0  0  0  0  0  0  0  0
   -9.4052   -1.4613   -1.0087 C   0  0  0  0  0  0  0  0  0  0  0  0
  -10.5464   -2.1806   -0.6240 C   0  0  0  0  0  0  0  0  0  0  0  0
  -11.1504   -1.9474    0.6111 C   0  0  0  0  0  0  0  0  0  0  0  0
  -10.6216   -0.9922    1.4786 C   0  0  0  0  0  0  0  0  0  0  0  0
   -9.4816   -0.2565    1.1226 C   0  0  0  0  0  0  0  0  0  0  0  0
   -8.8688   -0.4919   -0.1299 C   0  0  0  0  0  0  0  0  0  0  0  0
   -8.9357    0.7073    1.9811 C   0  0  0  0  0  0  0  0  0  0  0  0
   -7.8000    1.4321    1.6113 C   0  0  0  0  0  0  0  0  0  0  0  0
   -4.3928    3.6661   -2.3426 C   0  0  0  0  0  0  0  0  0  0  0  0
   -3.2987    4.4284   -2.7370 C   0  0  0  0  0  0  0  0  0  0  0  0
   -2.0111    3.9991   -2.4291 C   0  0  0  0  0  0  0  0  0  0  0  0
   -1.7974    2.8049   -1.7240 C   0  0  0  0  0  0  0  0  0  0  0  0
   -0.4897    2.3874   -1.4222 C   0  0  0  0  0  0  0  0  0  0  0  0
   -0.2383    1.1985   -0.7197 C   0  0  0  0  0  0  0  0  0  0  0  0
    1.0701    0.7823   -0.4194 C   0  0  0  0  0  0  0  0  0  0  0  0
    1.3179   -0.4090    0.2837 C   0  0  0  0  0  0  0  0  0  0  0  0
    2.6261   -0.8270    0.5853 C   0  0  0  0  0  0  0  0  0  0  0  0
    2.8972   -2.0232    1.2924 C   0  0  0  0  0  0  0  0  0  0  0  0
    5.9257   -0.7147    2.0862 C   0  0  0  0  0  0  0  0  0  0  0  0
    7.0685    0.0228    1.7410 C   0  0  0  0  0  0  0  0  0  0  0  0
    7.7190   -0.2414    0.5148 C   0  0  0  0  0  0  0  0  0  0  0  0
    7.5782    1.0171    2.5865 C   0  0  0  0  0  0  0  0  0  0  0  0
    8.7163    1.7445    2.2293 C   0  0  0  0  0  0  0  0  0  0  0  0
   12.0433    2.5241   -0.8457 H   0  0  0  0  0  0  0  0  0  0  0  0
   10.9178    2.9921    1.2953 H   0  0  0  0  0  0  0  0  0  0  0  0
   11.1802    0.7834   -2.3604 H   0  0  0  0  0  0  0  0  0  0  0  0
    9.4998   -0.9821   -2.8684 H   0  0  0  0  0  0  0  0  0  0  0  0
    7.5073   -2.2552   -2.2412 H   0  0  0  0  0  0  0  0  0  0  0  0
    5.6792   -2.7322   -0.6381 H   0  0  0  0  0  0  0  0  0  0  0  0
    5.3885   -4.0184    2.5644 H   0  0  0  0  0  0  0  0  0  0  0  0
    3.4414   -5.3648    3.2518 H   0  0  0  0  0  0  0  0  0  0  0  0
    1.1611   -4.6166    2.7141 H   0  0  0  0  0  0  0  0  0  0  0  0
   -0.3573   -3.0050    1.7139 H   0  0  0  0  0  0  0  0  0  0  0  0
   -1.9163   -1.3984    0.7146 H   0  0  0  0  0  0  0  0  0  0  0  0
   -3.4596    0.1967   -0.2832 H   0  0  0  0  0  0  0  0  0  0  0  0
   -5.6170    2.6779    0.6611 H   0  0  0  0  0  0  0  0  0  0  0  0
   -5.4829    0.5654   -3.0731 H   0  0  0  0  0  0  0  0  0  0  0  0
   -7.1903   -1.1543   -3.5808 H   0  0  0  0  0  0  0  0  0  0  0  0
   -9.1800   -2.4231   -2.9362 H   0  0  0  0  0  0  0  0  0  0  0  0
  -10.9747   -2.9297   -1.2863 H   0  0  0  0  0  0  0  0  0  0  0  0
  -12.0347   -2.5109    0.8979 H   0  0  0  0  0  0  0  0  0  0  0  0
  -11.1074   -0.8257    2.4375 H   0  0  0  0  0  0  0  0  0  0  0  0
   -9.3910    0.9034    2.9493 H   0  0  0  0  0  0  0  0  0  0  0  0
   -7.4019    2.1725    2.3020 H   0  0  0  0  0  0  0  0  0  0  0  0
   -5.3957    4.0114   -2.5887 H   0  0  0  0  0  0  0  0  0  0  0  0
   -3.4490    5.3555   -3.2837 H   0  0  0  0  0  0  0  0  0  0  0  0
   -1.1681    4.6091   -2.7471 H   0  0  0  0  0  0  0  0  0  0  0  0
    0.3517    3.0007   -1.7411 H   0  0  0  0  0  0  0  0  0  0  0  0
    1.9114    1.3955   -0.7387 H   0  0  0  0  0  0  0  0  0  0  0  0
    3.4554   -0.2010    0.2586 H   0  0  0  0  0  0  0  0  0  0  0  0
    5.4179   -0.5161    3.0290 H   0  0  0  0  0  0  0  0  0  0  0  0
    7.0922    1.2358    3.5350 H   0  0  0  0  0  0  0  0  0  0  0  0
    9.0847    2.5089    2.9097 H   0  0  0  0  0  0  0  0  0  0  0  0
  1  2  4  0
  2  3  4  0
  3  4  4  0
  4  5  4  0
  5  6  4  0
  5  7  4  0
  7  8  4  0
  8  9  4  0
  9 10  4  0
 10 11  4  0
 11 12  1  0
 12 13  4  0
 13 14  4  0
 14 15  4  0
 15 16  4  0
 16 17  4  0
 17 18  4  0
 18 19  4  0
 19 20  4  0
 20 21  4  0
 21 22  4  0
 22 23  4  0
 23 24  1  0
 24 25  4  0
 25 26  4  0
 26 27  4  0
 27 28  4  0
 28 29  4  0
 28 30  4  0
 30 31  4  0
 31 32  4  0
 32 33  4  0
 33 34  4  0
 34 35  4  0
 35 36  4  0
 36 37  4  0
 36 38  4  0
 38 39  4  0
 23 40  4  0
 40 41  4  0
 41 42  4  0
 42 43  4  0
 43 44  4  0
 44 45  4  0
 45 46  4  0
 46 47  4  0
 47 48  4  0
 48 49  4  0
 11 50  4  0
 50 51  4  0
 51 52  4  0
 51 53  4  0
 53 54  4  0
  6  1  4  0
 52  9  4  0
 54  3  4  0
 52  4  4  0
 49 12  4  0
 49 16  4  0
 47 18  4  0
 45 20  4  0
 43 22  4  0
 29 24  4  0
 37 32  4  0
 39 26  4  0
 37 27  4  0
  1 55  1  0
  2 56  1  0
  6 57  1  0
  7 58  1  0
  8 59  1  0
 10 60  1  0
 13 61  1  0
 14 62  1  0
 15 63  1  0
 17 64  1  0
 19 65  1  0
 21 66  1  0
 25 67  1  0
 29 68  1  0
 30 69  1  0
 31 70  1  0
 33 71  1  0
 34 72  1  0
 35 73  1  0
 38 74  1  0
 39 75  1  0
 40 76  1  0
 41 77  1  0
 42 78  1  0
 44 79  1  0
 46 80  1  0
 48 81  1  0
 50 82  1  0
 53 83  1  0
 54 84  1  0
M  END
