
     RDKit          3D

 84 96  0  0  0  0  0  0  0  0999 V2000
   -8.9671    2.3221   -0.5663 C   0  0  0  0  0  0  0  0  0  0  0  0
   -9.5250    1.3363    0.2451 C   0  0  0  0  0  0  0  0  0  0  0  0
   -8.9381    0.0652    0.3298 C   0  0  0  0  0  0  0  0  0  0  0  0
   -7.7689   -0.2162   -0.4179 C   0  0  0  0  0  0  0  0  0  0  0  0
   -7.2100    0.7854   -1.2399 C   0  0  0  0  0  0  0  0  0  0  0  0
   -7.8171    2.0484   -1.3040 C   0  0  0  0  0  0  0  0  0  0  0  0
   -6.0579    0.4978   -1.9795 C   0  0  0  0  0  0  0  0  0  0  0  0
   -5.4390   -0.7651   -1.9225 C   0  0  0  0  0  0  0  0  0  0  0  0
   -4.2332   -0.9847   -2.7502 C   0  0  0  0  0  0  0  0  0  0  0  0
   -4.4113   -1.4527   -4.0657 C   0  0  0  0  0  0  0  0  0  0  0  0
   -3.3212   -1.6773   -4.8986 C   0  0  0  0  0  0  0  0  0  0  0  0
   -2.0336   -1.4348   -4.4299 C   0  0  0  0  0  0  0  0  0  0  0  0
   -1.8159   -0.9655   -3.1257 C   0  0  0  0  0  0  0  0  0  0  0  0
   -0.5075   -0.7261   -2.6728 C   0  0  0  0  0  0  0  0  0  0  0  0
   -0.2512   -0.2565   -1.3757 C   0  0  0  0  0  0  0  0  0  0  0  0
    1.0584   -0.0164   -0.9270 C   0  0  0  0  0  0  0  0  0  0  0  0
    1.3136    0.4553    0.3715 C   0  0  0  0  0  0  0  0  0  0  0  0
    2.6231    0.6999    0.8197 C   0  0  0  0  0  0  0  0  0  0  0  0
    2.9026    1.1767    2.1227 C   0  0  0  0  0  0  0  0  0  0  0  0
    4.2211    1.4368    2.5987 C   0  0  0  0  0  0  0  0  0  0  0  0
    5.4180    1.2428    1.7529 C   0  0  0  0  0  0  0  0  0  0  0  0
    5.8569    2.3304    0.9745 C   0  0  0  0  0  0  0  0  0  0  0  0
    6.9751    2.2323    0.1407 C   0  0  0  0  0  0  0  0  0  0  0  0
    7.3991    3.3216   -0.6349 C   0  0  0  0  0  0  0  0  0  0  0  0
    8.5142    3.2119   -1.4628 C   0  0  0  0  0  0  0  0  0  0  0  0
    9.2191    2.0117   -1.5253 C   0  0  0  0  0  0  0  0  0  0  0  0
    8.8170    0.9064   -0.7612 C   0  0  0  0  0  0  0  0  0  0  0  0
    7.6843    1.0140    0.0808 C   0  0  0  0  0  0  0  0  0  0  0  0
    7.2625   -0.0946    0.8591 C   0  0  0  0  0  0  0  0  0  0  0  0
    7.9890   -1.3099    0.7834 C   0  0  0  0  0  0  0  0  0  0  0  0
    7.5810   -2.4112    1.5452 C   0  0  0  0  0  0  0  0  0  0  0  0
    6.4678   -2.3220    2.3731 C   0  0  0  0  0  0  0  0  0  0  0  0
    5.7512   -1.1284    2.4492 C   0  0  0  0  0  0  0  0  0  0  0  0
    6.1256    0.0108    1.7016 C   0  0  0  0  0  0  0  0  0  0  0  0
    9.1080   -1.3980   -0.0542 C   0  0  0  0  0  0  0  0  0  0  0  0
    9.5170   -0.3038   -0.8173 C   0  0  0  0  0  0  0  0  0  0  0  0
    4.4053    1.9085    3.9114 C   0  0  0  0  0  0  0  0  0  0  0  0
    3.3189    2.1222    4.7519 C   0  0  0  0  0  0  0  0  0  0  0  0
    2.0297    1.8710    4.2914 C   0  0  0  0  0  0  0  0  0  0  0  0
    1.8060    1.4021    2.9878 C   0  0  0  0  0  0  0  0  0  0  0  0
    0.4966    1.1572    2.5393 C   0  0  0  0  0  0  0  0  0  0  0  0
    0.2361    0.6889    1.2419 C   0  0  0  0  0  0  0  0  0  0  0  0
   -1.0741    0.4483    0.7929 C   0  0  0  0  0  0  0  0  0  0  0  0
   -1.3301   -0.0212   -0.5070 C   0  0  0  0  0  0  0  0  0  0  0  0
   -2.6396   -0.2615   -0.9601 C   0  0  0  0  0  0  0  0  0  0  0  0
   -2.9161   -0.7332   -2.2658 C   0  0  0  0  0  0  0  0  0  0  0  0
   -5.9908   -1.7802   -1.0938 C   0  0  0  0  0  0  0  0  0  0  0  0
   -5.4291   -3.0713   -0.9750 C   0  0  0  0  0  0  0  0  0  0  0  0
   -5.9974   -4.0442   -0.1539 C   0  0  0  0  0  0  0  0  0  0  0  0
   -7.1468   -3.7542    0.5724 C   0  0  0  0  0  0  0  0  0  0  0  0
   -7.7390   -2.4884    0.4889 C   0  0  0  0  0  0  0  0  0  0  0  0
   -7.1616   -1.4960   -0.3434 C   0  0  0  0  0  0  0  0  0  0  0  0
   -8.8969   -2.1931    1.2200 C   0  0  0  0  0  0  0  0  0  0  0  0
   -9.4895   -0.9323    1.1416 C   0  0  0  0  0  0  0  0  0  0  0  0
   -9.4284    3.3044   -0.6248 H   0  0  0  0  0  0  0  0  0  0  0  0
  -10.4238    1.5680    0.8124 H   0  0  0  0  0  0  0  0  0  0  0  0
   -7.3967    2.8308   -1.9323 H   0  0  0  0  0  0  0  0  0  0  0  0
   -5.6231    1.2666   -2.6179 H   0  0  0  0  0  0  0  0  0  0  0  0
   -5.4148   -1.6468   -4.4414 H   0  0  0  0  0  0  0  0  0  0  0  0
   -3.4745   -2.0405   -5.9113 H   0  0  0  0  0  0  0  0  0  0  0  0
   -1.1933   -1.6162   -5.0969 H   0  0  0  0  0  0  0  0  0  0  0  0
    0.3303   -0.9088   -3.3438 H   0  0  0  0  0  0  0  0  0  0  0  0
    1.8947   -0.1993   -1.5998 H   0  0  0  0  0  0  0  0  0  0  0  0
    3.4471    0.5119    0.1324 H   0  0  0  0  0  0  0  0  0  0  0  0
    5.3033    3.2678    1.0235 H   0  0  0  0  0  0  0  0  0  0  0  0
    6.8608    4.2663   -0.5996 H   0  0  0  0  0  0  0  0  0  0  0  0
    8.8332    4.0623   -2.0595 H   0  0  0  0  0  0  0  0  0  0  0  0
   10.0873    1.9450   -2.1769 H   0  0  0  0  0  0  0  0  0  0  0  0
    8.1275   -3.3504    1.4980 H   0  0  0  0  0  0  0  0  0  0  0  0
    6.1540   -3.1811    2.9602 H   0  0  0  0  0  0  0  0  0  0  0  0
    4.8833   -1.0979    3.1057 H   0  0  0  0  0  0  0  0  0  0  0  0
    9.6745   -2.3242   -0.1218 H   0  0  0  0  0  0  0  0  0  0  0  0
   10.3901   -0.4072   -1.4574 H   0  0  0  0  0  0  0  0  0  0  0  0
    5.4099    2.1092    4.2802 H   0  0  0  0  0  0  0  0  0  0  0  0
    3.4767    2.4856    5.7637 H   0  0  0  0  0  0  0  0  0  0  0  0
    1.1926    2.0468    4.9639 H   0  0  0  0  0  0  0  0  0  0  0  0
   -0.3389    1.3359    3.2141 H   0  0  0  0  0  0  0  0  0  0  0  0
   -1.9102    0.6292    1.4665 H   0  0  0  0  0  0  0  0  0  0  0  0
   -3.4654   -0.0769   -0.2740 H   0  0  0  0  0  0  0  0  0  0  0  0
   -4.5285   -3.3354   -1.5267 H   0  0  0  0  0  0  0  0  0  0  0  0
   -5.5401   -5.0276   -0.0830 H   0  0  0  0  0  0  0  0  0  0  0  0
   -7.5771   -4.5262    1.2063 H   0  0  0  0  0  0  0  0  0  0  0  0
   -9.3513   -2.9458    1.8608 H   0  0  0  0  0  0  0  0  0  0  0  0
  -10.3882   -0.7374    1.7226 H   0  0  0  0  0  0  0  0  0  0  0  0
  1  2  4  0
  2  3  4  0
  3  4  4  0
  4  5  4  0
  5  6  4  0
  5  7  4  0
  7  8  4  0
  8  9  1  0
  9 10  4  0
 10 11  4  0
 11 12  4  0
 12 13  4  0
 13 14  4  0
 14 15  4  0
 15 16  4  0
 16 17  4  0
 17 18  4  0
 18 19  4  0
 19 20  4  0
 20 21  1  0
 21 22  4  0
 22 23  4  0
 23 24  4  0
 24 25  4  0
 25 26  4  0
 26 27  4  0
 27 28  4  0
 28 29  4  0
 29 30  4  0
 30 31  4  0
 31 32  4  0
 32 33  4  0
 33 34  4  0
 30 35  4  0
 35 36  4  0
 20 37  4  0
 37 38  4  0
 38 39  4  0
 39 40  4  0
 40 41  4  0
 41 42  4  0
 42 43  4  0
 43 44  4  0
 44 45  4  0
 45 46  4  0
  8 47  4  0
 47 48  4  0
 48 49  4  0
 49 50  4  0
 50 51  4  0
 51 52  4  0
 51 53  4  0
 53 54  4  0
  6  1  4  0
 46  9  4  0
 52 47  4  0
 54  3  4  0
 52  4  4  0
 46 13  4  0
 44 15  4  0
 42 17  4  0
 40 19  4  0
 34 21  4  0
 28 23  4  0
 34 29  4  0
 36 27  4  0
  1 55  1  0
  2 56  1  0
  6 57  1  0
  7 58  1  0
 10 59  1  0
 11 60  1  0
 12 61  1  0
 14 62  1  0
 16 63  1  0
 18 64  1  0
 22 65  1  0
 24 66  1  0
 25 67  1  0
 26 68  1  0
 31 69  1  0
 32 70  1  0
 33 71  1  0
 35 72  1  0
 36 73  1  0
 37 74  1  0
 38 75  1  0
 39 76  1  0
 41 77  1  0
 43 78  1  0
 45 79  1  0
 48 80  1  0
 49 81  1  0
 50 82  1  0
 53 83  1  0
 54 84  1  0
M  END
