
     RDKit          3D

116132  0  0  0  0  0  0  0  0999 V2000
    6.9706    1.8858   -9.3662 C   0  0  0  0  0  0  0  0  0  0  0  0
    6.0223    2.8463   -9.0286 C   0  0  0  0  0  0  0  0  0  0  0  0
    5.5858    2.9606   -7.7079 C   0  0  0  0  0  0  0  0  0  0  0  0
    6.0930    2.1148   -6.7074 C   0  0  0  0  0  0  0  0  0  0  0  0
    5.6640    2.2172   -5.3737 C   0  0  0  0  0  0  0  0  0  0  0  0
    6.1718    1.3708   -4.3734 C   0  0  0  0  0  0  0  0  0  0  0  0
    5.7429    1.4733   -3.0394 C   0  0  0  0  0  0  0  0  0  0  0  0
    6.2503    0.6276   -2.0385 C   0  0  0  0  0  0  0  0  0  0  0  0
    5.8223    0.7307   -0.7044 C   0  0  0  0  0  0  0  0  0  0  0  0
    6.3295   -0.1149    0.2968 C   0  0  0  0  0  0  0  0  0  0  0  0
    5.9032   -0.0107    1.6324 C   0  0  0  0  0  0  0  0  0  0  0  0
    6.4010   -0.8519    2.6558 C   0  0  0  0  0  0  0  0  0  0  0  0
    7.3606   -1.8272    2.2938 C   0  0  0  0  0  0  0  0  0  0  0  0
    7.7872   -1.9309    0.9587 C   0  0  0  0  0  0  0  0  0  0  0  0
    7.2852   -1.0868   -0.0440 C   0  0  0  0  0  0  0  0  0  0  0  0
    7.7152   -1.1908   -1.3782 C   0  0  0  0  0  0  0  0  0  0  0  0
    7.2093   -0.3449   -2.3798 C   0  0  0  0  0  0  0  0  0  0  0  0
    7.6384   -0.4476   -3.7138 C   0  0  0  0  0  0  0  0  0  0  0  0
    7.1317    0.3983   -4.7149 C   0  0  0  0  0  0  0  0  0  0  0  0
    7.5615    0.2951   -6.0489 C   0  0  0  0  0  0  0  0  0  0  0  0
    7.0547    1.1407   -7.0497 C   0  0  0  0  0  0  0  0  0  0  0  0
    7.4839    1.0381   -8.3835 C   0  0  0  0  0  0  0  0  0  0  0  0
    7.8848   -2.6886    3.2697 C   0  0  0  0  0  0  0  0  0  0  0  0
    7.4759   -2.6005    4.5971 C   0  0  0  0  0  0  0  0  0  0  0  0
    6.5352   -1.6459    4.9670 C   0  0  0  0  0  0  0  0  0  0  0  0
    5.9855   -0.7652    4.0169 C   0  0  0  0  0  0  0  0  0  0  0  0
    4.9948    0.2298    4.4810 C   0  0  0  0  0  0  0  0  0  0  0  0
    5.4710    1.4672    4.9529 C   0  0  0  0  0  0  0  0  0  0  0  0
    4.5931    2.4456    5.4053 C   0  0  0  0  0  0  0  0  0  0  0  0
    3.2229    2.2012    5.3961 C   0  0  0  0  0  0  0  0  0  0  0  0
    2.7100    0.9791    4.9348 C   0  0  0  0  0  0  0  0  0  0  0  0
    1.3229    0.7512    4.9335 C   0  0  0  0  0  0  0  0  0  0  0  0
    0.7737   -0.4570    4.4760 C   0  0  0  0  0  0  0  0  0  0  0  0
   -0.6139   -0.6832    4.4741 C   0  0  0  0  0  0  0  0  0  0  0  0
   -1.1601   -1.8928    4.0109 C   0  0  0  0  0  0  0  0  0  0  0  0
   -2.5477   -2.1216    4.0052 C   0  0  0  0  0  0  0  0  0  0  0  0
   -3.1158   -3.3316    3.5391 C   0  0  0  0  0  0  0  0  0  0  0  0
   -4.5186   -3.5871    3.5187 C   0  0  0  0  0  0  0  0  0  0  0  0
   -5.5128   -2.6008    3.9936 C   0  0  0  0  0  0  0  0  0  0  0  0
   -5.9344   -2.6788    5.3342 C   0  0  0  0  0  0  0  0  0  0  0  0
   -6.8739   -1.7884    5.8416 C   0  0  0  0  0  0  0  0  0  0  0  0
   -7.4095   -0.8053    5.0151 C   0  0  0  0  0  0  0  0  0  0  0  0
   -7.0159   -0.6969    3.6727 C   0  0  0  0  0  0  0  0  0  0  0  0
   -7.5713    0.3010    2.8541 C   0  0  0  0  0  0  0  0  0  0  0  0
   -7.2023    0.4408    1.5073 C   0  0  0  0  0  0  0  0  0  0  0  0
   -7.7615    1.4391    0.6909 C   0  0  0  0  0  0  0  0  0  0  0  0
   -7.3889    1.5783   -0.6566 C   0  0  0  0  0  0  0  0  0  0  0  0
   -7.9474    2.5761   -1.4735 C   0  0  0  0  0  0  0  0  0  0  0  0
   -7.5736    2.7155   -2.8207 C   0  0  0  0  0  0  0  0  0  0  0  0
   -8.1326    3.7136   -3.6368 C   0  0  0  0  0  0  0  0  0  0  0  0
   -7.7589    3.8533   -4.9836 C   0  0  0  0  0  0  0  0  0  0  0  0
   -8.3174    4.8509   -5.7999 C   0  0  0  0  0  0  0  0  0  0  0  0
   -7.9356    4.9767   -7.1364 C   0  0  0  0  0  0  0  0  0  0  0  0
   -6.9912    4.1077   -7.6737 C   0  0  0  0  0  0  0  0  0  0  0  0
   -6.4272    3.1114   -6.8754 C   0  0  0  0  0  0  0  0  0  0  0  0
   -6.8012    2.9719   -5.5284 C   0  0  0  0  0  0  0  0  0  0  0  0
   -6.2431    1.9745   -4.7117 C   0  0  0  0  0  0  0  0  0  0  0  0
   -6.6178    1.8354   -3.3645 C   0  0  0  0  0  0  0  0  0  0  0  0
   -6.0598    0.8375   -2.5474 C   0  0  0  0  0  0  0  0  0  0  0  0
   -6.4339    0.6981   -1.2001 C   0  0  0  0  0  0  0  0  0  0  0  0
   -5.8769   -0.3002   -0.3828 C   0  0  0  0  0  0  0  0  0  0  0  0
   -6.2511   -0.4394    0.9647 C   0  0  0  0  0  0  0  0  0  0  0  0
   -5.6965   -1.4392    1.7834 C   0  0  0  0  0  0  0  0  0  0  0  0
   -6.0590   -1.5952    3.1428 C   0  0  0  0  0  0  0  0  0  0  0  0
   -4.9915   -4.8222    3.0371 C   0  0  0  0  0  0  0  0  0  0  0  0
   -4.1115   -5.7958    2.5786 C   0  0  0  0  0  0  0  0  0  0  0  0
   -2.7418   -5.5505    2.5949 C   0  0  0  0  0  0  0  0  0  0  0  0
   -2.2318   -4.3321    3.0685 C   0  0  0  0  0  0  0  0  0  0  0  0
   -0.8453   -4.1039    3.0757 C   0  0  0  0  0  0  0  0  0  0  0  0
   -0.2987   -2.8978    3.5402 C   0  0  0  0  0  0  0  0  0  0  0  0
    1.0883   -2.6725    3.5442 C   0  0  0  0  0  0  0  0  0  0  0  0
    1.6343   -1.4633    4.0070 C   0  0  0  0  0  0  0  0  0  0  0  0
    3.0219   -1.2366    4.0106 C   0  0  0  0  0  0  0  0  0  0  0  0
    3.5920   -0.0251    4.4691 C   0  0  0  0  0  0  0  0  0  0  0  0
    7.3119    1.7951  -10.3941 H   0  0  0  0  0  0  0  0  0  0  0  0
    5.6211    3.5075   -9.7923 H   0  0  0  0  0  0  0  0  0  0  0  0
    4.8439    3.7177   -7.4639 H   0  0  0  0  0  0  0  0  0  0  0  0
    4.9220    2.9686   -5.1100 H   0  0  0  0  0  0  0  0  0  0  0  0
    5.0006    2.2245   -2.7746 H   0  0  0  0  0  0  0  0  0  0  0  0
    5.0804    1.4823   -0.4392 H   0  0  0  0  0  0  0  0  0  0  0  0
    5.1613    0.7476    1.8793 H   0  0  0  0  0  0  0  0  0  0  0  0
    8.5268   -2.6846    0.6933 H   0  0  0  0  0  0  0  0  0  0  0  0
    8.4569   -1.9429   -1.6418 H   0  0  0  0  0  0  0  0  0  0  0  0
    8.3800   -1.1995   -3.9778 H   0  0  0  0  0  0  0  0  0  0  0  0
    8.3032   -0.4562   -6.3135 H   0  0  0  0  0  0  0  0  0  0  0  0
    8.2245    0.2936   -8.6671 H   0  0  0  0  0  0  0  0  0  0  0  0
    8.6231   -3.4414    3.0005 H   0  0  0  0  0  0  0  0  0  0  0  0
    7.8907   -3.2742    5.3421 H   0  0  0  0  0  0  0  0  0  0  0  0
    6.2217   -1.5853    6.0080 H   0  0  0  0  0  0  0  0  0  0  0  0
    6.5411    1.6687    4.9630 H   0  0  0  0  0  0  0  0  0  0  0  0
    4.9762    3.3971    5.7645 H   0  0  0  0  0  0  0  0  0  0  0  0
    2.5519    2.9792    5.7547 H   0  0  0  0  0  0  0  0  0  0  0  0
    0.6549    1.5313    5.2951 H   0  0  0  0  0  0  0  0  0  0  0  0
   -1.2817    0.0961    4.8376 H   0  0  0  0  0  0  0  0  0  0  0  0
   -3.2024   -1.3319    4.3715 H   0  0  0  0  0  0  0  0  0  0  0  0
   -5.5211   -3.4443    5.9889 H   0  0  0  0  0  0  0  0  0  0  0  0
   -7.1890   -1.8609    6.8792 H   0  0  0  0  0  0  0  0  0  0  0  0
   -8.1442   -0.1183    5.4304 H   0  0  0  0  0  0  0  0  0  0  0  0
   -8.3081    0.9845    3.2731 H   0  0  0  0  0  0  0  0  0  0  0  0
   -8.4998    2.1194    1.1117 H   0  0  0  0  0  0  0  0  0  0  0  0
   -8.6862    3.2565   -1.0536 H   0  0  0  0  0  0  0  0  0  0  0  0
   -8.8713    4.3939   -3.2170 H   0  0  0  0  0  0  0  0  0  0  0  0
   -9.0571    5.5396   -5.3979 H   0  0  0  0  0  0  0  0  0  0  0  0
   -8.3761    5.7532   -7.7563 H   0  0  0  0  0  0  0  0  0  0  0  0
   -6.6924    4.2038   -8.7143 H   0  0  0  0  0  0  0  0  0  0  0  0
   -5.6906    2.4417   -7.3137 H   0  0  0  0  0  0  0  0  0  0  0  0
   -5.5042    1.2950   -5.1325 H   0  0  0  0  0  0  0  0  0  0  0  0
   -5.3210    0.1572   -2.9675 H   0  0  0  0  0  0  0  0  0  0  0  0
   -5.1384   -0.9816   -0.8021 H   0  0  0  0  0  0  0  0  0  0  0  0
   -4.9602   -2.1133    1.3475 H   0  0  0  0  0  0  0  0  0  0  0  0
   -6.0615   -5.0232    3.0182 H   0  0  0  0  0  0  0  0  0  0  0  0
   -4.4922   -6.7442    2.2090 H   0  0  0  0  0  0  0  0  0  0  0  0
   -2.0696   -6.3254    2.2317 H   0  0  0  0  0  0  0  0  0  0  0  0
   -0.1751   -4.8808    2.7106 H   0  0  0  0  0  0  0  0  0  0  0  0
    1.7557   -3.4511    3.1786 H   0  0  0  0  0  0  0  0  0  0  0  0
    3.6747   -2.0270    3.6422 H   0  0  0  0  0  0  0  0  0  0  0  0
  1  2  4  0
  2  3  4  0
  3  4  4  0
  4  5  4  0
  5  6  4  0
  6  7  4  0
  7  8  4  0
  8  9  4  0
  9 10  4  0
 10 11  4  0
 11 12  4  0
 12 13  4  0
 13 14  4  0
 14 15  4  0
 15 16  4  0
 16 17  4  0
 17 18  4  0
 18 19  4  0
 19 20  4  0
 20 21  4  0
 21 22  4  0
 13 23  4  0
 23 24  4  0
 24 25  4  0
 25 26  4  0
 26 27  1  0
 27 28  4  0
 28 29  4  0
 29 30  4  0
 30 31  4  0
 31 32  4  0
 32 33  4  0
 33 34  4  0
 34 35  4  0
 35 36  4  0
 36 37  4  0
 37 38  4  0
 38 39  1  0
 39 40  4  0
 40 41  4  0
 41 42  4  0
 42 43  4  0
 43 44  4  0
 44 45  4  0
 45 46  4  0
 46 47  4  0
 47 48  4  0
 48 49  4  0
 49 50  4  0
 50 51  4  0
 51 52  4  0
 52 53  4  0
 53 54  4  0
 54 55  4  0
 55 56  4  0
 56 57  4  0
 57 58  4  0
 58 59  4  0
 59 60  4  0
 60 61  4  0
 61 62  4  0
 62 63  4  0
 63 64  4  0
 38 65  4  0
 65 66  4  0
 66 67  4  0
 67 68  4  0
 68 69  4  0
 69 70  4  0
 70 71  4  0
 71 72  4  0
 72 73  4  0
 73 74  4  0
 22  1  4  0
 74 27  4  0
 21  4  4  0
 74 31  4  0
 19  6  4  0
 72 33  4  0
 17  8  4  0
 70 35  4  0
 15 10  4  0
 68 37  4  0
 26 12  4  0
 64 39  4  0
 64 43  4  0
 62 45  4  0
 60 47  4  0
 58 49  4  0
 56 51  4  0
  1 75  1  0
  2 76  1  0
  3 77  1  0
  5 78  1  0
  7 79  1  0
  9 80  1  0
 11 81  1  0
 14 82  1  0
 16 83  1  0
 18 84  1  0
 20 85  1  0
 22 86  1  0
 23 87  1  0
 24 88  1  0
 25 89  1  0
 28 90  1  0
 29 91  1  0
 30 92  1  0
 32 93  1  0
 34 94  1  0
 36 95  1  0
 40 96  1  0
 41 97  1  0
 42 98  1  0
 44 99  1  0
 46100  1  0
 48101  1  0
 50102  1  0
 52103  1  0
 53104  1  0
 54105  1  0
 55106  1  0
 57107  1  0
 59108  1  0
 61109  1  0
 63110  1  0
 65111  1  0
 66112  1  0
 67113  1  0
 69114  1  0
 71115  1  0
 73116  1  0
M  END
