
     RDKit          3D

116132  0  0  0  0  0  0  0  0999 V2000
    8.5937    6.0031    5.8058 C   0  0  0  0  0  0  0  0  0  0  0  0
    8.9536    4.7600    5.2831 C   0  0  0  0  0  0  0  0  0  0  0  0
    8.2804    4.2251    4.1722 C   0  0  0  0  0  0  0  0  0  0  0  0
    8.6304    2.9756    3.6343 C   0  0  0  0  0  0  0  0  0  0  0  0
    7.9565    2.4412    2.5230 C   0  0  0  0  0  0  0  0  0  0  0  0
    8.3068    1.1915    1.9849 C   0  0  0  0  0  0  0  0  0  0  0  0
    7.6337    0.6564    0.8736 C   0  0  0  0  0  0  0  0  0  0  0  0
    7.9841   -0.5930    0.3346 C   0  0  0  0  0  0  0  0  0  0  0  0
    7.3094   -1.1278   -0.7765 C   0  0  0  0  0  0  0  0  0  0  0  0
    7.6563   -2.3760   -1.3164 C   0  0  0  0  0  0  0  0  0  0  0  0
    6.9839   -2.9131   -2.4276 C   0  0  0  0  0  0  0  0  0  0  0  0
    7.3578   -4.1651   -2.9391 C   0  0  0  0  0  0  0  0  0  0  0  0
    6.7053   -4.7134   -4.0391 C   0  0  0  0  0  0  0  0  0  0  0  0
    5.6677   -4.0136   -4.6446 C   0  0  0  0  0  0  0  0  0  0  0  0
    5.2627   -2.7558   -4.1599 C   0  0  0  0  0  0  0  0  0  0  0  0
    4.1567   -2.0653   -4.8578 C   0  0  0  0  0  0  0  0  0  0  0  0
    4.4798   -1.2179   -5.9340 C   0  0  0  0  0  0  0  0  0  0  0  0
    3.4871   -0.5466   -6.6389 C   0  0  0  0  0  0  0  0  0  0  0  0
    2.1528   -0.7142   -6.2806 C   0  0  0  0  0  0  0  0  0  0  0  0
    1.7907   -1.5520   -5.2146 C   0  0  0  0  0  0  0  0  0  0  0  0
    0.4371   -1.7106   -4.8701 C   0  0  0  0  0  0  0  0  0  0  0  0
    0.0377   -2.5395   -3.8100 C   0  0  0  0  0  0  0  0  0  0  0  0
   -1.3165   -2.6990   -3.4681 C   0  0  0  0  0  0  0  0  0  0  0  0
   -1.7123   -3.5304   -2.4062 C   0  0  0  0  0  0  0  0  0  0  0  0
   -3.0662   -3.6932   -2.0634 C   0  0  0  0  0  0  0  0  0  0  0  0
   -3.4847   -4.5263   -0.9983 C   0  0  0  0  0  0  0  0  0  0  0  0
   -4.8503   -4.7073   -0.6303 C   0  0  0  0  0  0  0  0  0  0  0  0
   -5.9585   -4.0350   -1.3416 C   0  0  0  0  0  0  0  0  0  0  0  0
   -6.4327   -2.7440   -0.9665 C   0  0  0  0  0  0  0  0  0  0  0  0
   -5.8887   -1.9937    0.1028 C   0  0  0  0  0  0  0  0  0  0  0  0
   -6.3746   -0.7229    0.4554 C   0  0  0  0  0  0  0  0  0  0  0  0
   -5.8213    0.0041    1.5229 C   0  0  0  0  0  0  0  0  0  0  0  0
   -6.3091    1.2730    1.8767 C   0  0  0  0  0  0  0  0  0  0  0  0
   -5.7579    1.9986    2.9461 C   0  0  0  0  0  0  0  0  0  0  0  0
   -6.2462    3.2674    3.3001 C   0  0  0  0  0  0  0  0  0  0  0  0
   -5.6948    3.9921    4.3702 C   0  0  0  0  0  0  0  0  0  0  0  0
   -6.1827    5.2609    4.7243 C   0  0  0  0  0  0  0  0  0  0  0  0
   -5.6318    5.9860    5.7939 C   0  0  0  0  0  0  0  0  0  0  0  0
   -6.1277    7.2457    6.1334 C   0  0  0  0  0  0  0  0  0  0  0  0
   -7.1799    7.7964    5.4085 C   0  0  0  0  0  0  0  0  0  0  0  0
   -7.7379    7.0883    4.3431 C   0  0  0  0  0  0  0  0  0  0  0  0
   -7.2498    5.8193    3.9891 C   0  0  0  0  0  0  0  0  0  0  0  0
   -7.8004    5.0937    2.9197 C   0  0  0  0  0  0  0  0  0  0  0  0
   -7.3115    3.8245    2.5663 C   0  0  0  0  0  0  0  0  0  0  0  0
   -7.8625    3.0983    1.4969 C   0  0  0  0  0  0  0  0  0  0  0  0
   -7.3747    1.8290    1.1436 C   0  0  0  0  0  0  0  0  0  0  0  0
   -7.9264    1.1016    0.0755 C   0  0  0  0  0  0  0  0  0  0  0  0
   -7.4383   -0.1685   -0.2761 C   0  0  0  0  0  0  0  0  0  0  0  0
   -7.9879   -0.8986   -1.3414 C   0  0  0  0  0  0  0  0  0  0  0  0
   -7.5025   -2.1697   -1.6935 C   0  0  0  0  0  0  0  0  0  0  0  0
   -8.0765   -2.8717   -2.7642 C   0  0  0  0  0  0  0  0  0  0  0  0
   -7.6108   -4.1323   -3.1263 C   0  0  0  0  0  0  0  0  0  0  0  0
   -6.5615   -4.7091   -2.4196 C   0  0  0  0  0  0  0  0  0  0  0  0
   -5.1723   -5.5539    0.4467 C   0  0  0  0  0  0  0  0  0  0  0  0
   -4.1779   -6.2153    1.1582 C   0  0  0  0  0  0  0  0  0  0  0  0
   -2.8436   -6.0423    0.8026 C   0  0  0  0  0  0  0  0  0  0  0  0
   -2.4831   -5.2072   -0.2659 C   0  0  0  0  0  0  0  0  0  0  0  0
   -1.1299   -5.0449   -0.6089 C   0  0  0  0  0  0  0  0  0  0  0  0
   -0.7321   -4.2158   -1.6693 C   0  0  0  0  0  0  0  0  0  0  0  0
    0.6217   -4.0553   -2.0104 C   0  0  0  0  0  0  0  0  0  0  0  0
    1.0176   -3.2260   -3.0736 C   0  0  0  0  0  0  0  0  0  0  0  0
    2.3717   -3.0677   -3.4183 C   0  0  0  0  0  0  0  0  0  0  0  0
    2.7911   -2.2391   -4.4862 C   0  0  0  0  0  0  0  0  0  0  0  0
    5.9277   -2.1904   -3.0325 C   0  0  0  0  0  0  0  0  0  0  0  0
    5.5893   -0.9345   -2.4745 C   0  0  0  0  0  0  0  0  0  0  0  0
    6.2619   -0.3974   -1.3625 C   0  0  0  0  0  0  0  0  0  0  0  0
    5.9110    0.8524   -0.8241 C   0  0  0  0  0  0  0  0  0  0  0  0
    6.5842    1.3885    0.2865 C   0  0  0  0  0  0  0  0  0  0  0  0
    6.2338    2.6386    0.8242 C   0  0  0  0  0  0  0  0  0  0  0  0
    6.9069    3.1741    1.9353 C   0  0  0  0  0  0  0  0  0  0  0  0
    6.5560    4.4242    2.4726 C   0  0  0  0  0  0  0  0  0  0  0  0
    7.2291    4.9592    3.5834 C   0  0  0  0  0  0  0  0  0  0  0  0
    6.8787    6.2088    4.1209 C   0  0  0  0  0  0  0  0  0  0  0  0
    7.5571    6.7270    5.2251 C   0  0  0  0  0  0  0  0  0  0  0  0
    9.1234    6.4047    6.6657 H   0  0  0  0  0  0  0  0  0  0  0  0
    9.7666    4.2094    5.7510 H   0  0  0  0  0  0  0  0  0  0  0  0
    9.4414    2.4098    4.0892 H   0  0  0  0  0  0  0  0  0  0  0  0
    9.1181    0.6253    2.4391 H   0  0  0  0  0  0  0  0  0  0  0  0
    8.7961   -1.1591    0.7877 H   0  0  0  0  0  0  0  0  0  0  0  0
    8.4679   -2.9411   -0.8606 H   0  0  0  0  0  0  0  0  0  0  0  0
    8.1686   -4.7276   -2.4802 H   0  0  0  0  0  0  0  0  0  0  0  0
    7.0057   -5.6842   -4.4245 H   0  0  0  0  0  0  0  0  0  0  0  0
    5.1631   -4.4514   -5.5044 H   0  0  0  0  0  0  0  0  0  0  0  0
    5.5207   -1.0810   -6.2229 H   0  0  0  0  0  0  0  0  0  0  0  0
    3.7525    0.1049   -7.4673 H   0  0  0  0  0  0  0  0  0  0  0  0
    1.3905   -0.1818   -6.8460 H   0  0  0  0  0  0  0  0  0  0  0  0
   -0.3231   -1.1784   -5.4398 H   0  0  0  0  0  0  0  0  0  0  0  0
   -2.0770   -2.1674   -4.0381 H   0  0  0  0  0  0  0  0  0  0  0  0
   -3.8135   -3.1531   -2.6431 H   0  0  0  0  0  0  0  0  0  0  0  0
   -5.0623   -2.4079    0.6789 H   0  0  0  0  0  0  0  0  0  0  0  0
   -4.9964   -0.4267    2.0882 H   0  0  0  0  0  0  0  0  0  0  0  0
   -4.9346    1.5675    3.5132 H   0  0  0  0  0  0  0  0  0  0  0  0
   -4.8719    3.5617    4.9379 H   0  0  0  0  0  0  0  0  0  0  0  0
   -4.8089    5.5725    6.3726 H   0  0  0  0  0  0  0  0  0  0  0  0
   -5.6917    7.7954    6.9634 H   0  0  0  0  0  0  0  0  0  0  0  0
   -7.5676    8.7772    5.6712 H   0  0  0  0  0  0  0  0  0  0  0  0
   -8.5598    7.5356    3.7886 H   0  0  0  0  0  0  0  0  0  0  0  0
   -8.6237    5.5248    2.3530 H   0  0  0  0  0  0  0  0  0  0  0  0
   -8.6862    3.5286    0.9301 H   0  0  0  0  0  0  0  0  0  0  0  0
   -8.7504    1.5309   -0.4915 H   0  0  0  0  0  0  0  0  0  0  0  0
   -8.8122   -0.4681   -1.9078 H   0  0  0  0  0  0  0  0  0  0  0  0
   -8.8994   -2.4377   -3.3288 H   0  0  0  0  0  0  0  0  0  0  0  0
   -8.0656   -4.6645   -3.9575 H   0  0  0  0  0  0  0  0  0  0  0  0
   -6.2039   -5.6953   -2.7110 H   0  0  0  0  0  0  0  0  0  0  0  0
   -6.2132   -5.6930    0.7348 H   0  0  0  0  0  0  0  0  0  0  0  0
   -4.4421   -6.8642    1.9889 H   0  0  0  0  0  0  0  0  0  0  0  0
   -2.0801   -6.5687    1.3719 H   0  0  0  0  0  0  0  0  0  0  0  0
   -0.3685   -5.5752   -0.0389 H   0  0  0  0  0  0  0  0  0  0  0  0
    1.3820   -4.5848   -1.4385 H   0  0  0  0  0  0  0  0  0  0  0  0
    3.1186   -3.6056   -2.8359 H   0  0  0  0  0  0  0  0  0  0  0  0
    4.7780   -0.3563   -2.9149 H   0  0  0  0  0  0  0  0  0  0  0  0
    5.0984    1.4171   -1.2784 H   0  0  0  0  0  0  0  0  0  0  0  0
    5.4227    3.2047    0.3694 H   0  0  0  0  0  0  0  0  0  0  0  0
    5.7452    4.9917    2.0194 H   0  0  0  0  0  0  0  0  0  0  0  0
    6.0711    6.7895    3.6809 H   0  0  0  0  0  0  0  0  0  0  0  0
    7.2751    7.6952    5.6305 H   0  0  0  0  0  0  0  0  0  0  0  0
  1  2  4  0
  2  3  4  0
  3  4  4  0
  4  5  4  0
  5  6  4  0
  6  7  4  0
  7  8  4  0
  8  9  4  0
  9 10  4  0
 10 11  4  0
 11 12  4  0
 12 13  4  0
 13 14  4  0
 14 15  4  0
 15 16  1  0
 16 17  4  0
 17 18  4  0
 18 19  4  0
 19 20  4  0
 20 21  4  0
 21 22  4  0
 22 23  4  0
 23 24  4  0
 24 25  4  0
 25 26  4  0
 26 27  4  0
 27 28  1  0
 28 29  4  0
 29 30  4  0
 30 31  4  0
 31 32  4  0
 32 33  4  0
 33 34  4  0
 34 35  4  0
 35 36  4  0
 36 37  4  0
 37 38  4  0
 38 39  4  0
 39 40  4  0
 40 41  4  0
 41 42  4  0
 42 43  4  0
 43 44  4  0
 44 45  4  0
 45 46  4  0
 46 47  4  0
 47 48  4  0
 48 49  4  0
 49 50  4  0
 50 51  4  0
 51 52  4  0
 52 53  4  0
 27 54  4  0
 54 55  4  0
 55 56  4  0
 56 57  4  0
 57 58  4  0
 58 59  4  0
 59 60  4  0
 60 61  4  0
 61 62  4  0
 62 63  4  0
 15 64  4  0
 64 65  4  0
 65 66  4  0
 66 67  4  0
 67 68  4  0
 68 69  4  0
 69 70  4  0
 70 71  4  0
 71 72  4  0
 72 73  4  0
 73 74  4  0
 74  1  4  0
 72  3  4  0
 70  5  4  0
 68  7  4  0
 66  9  4  0
 64 11  4  0
 63 16  4  0
 63 20  4  0
 61 22  4  0
 59 24  4  0
 57 26  4  0
 53 28  4  0
 50 29  4  0
 48 31  4  0
 46 33  4  0
 44 35  4  0
 42 37  4  0
  1 75  1  0
  2 76  1  0
  4 77  1  0
  6 78  1  0
  8 79  1  0
 10 80  1  0
 12 81  1  0
 13 82  1  0
 14 83  1  0
 17 84  1  0
 18 85  1  0
 19 86  1  0
 21 87  1  0
 23 88  1  0
 25 89  1  0
 30 90  1  0
 32 91  1  0
 34 92  1  0
 36 93  1  0
 38 94  1  0
 39 95  1  0
 40 96  1  0
 41 97  1  0
 43 98  1  0
 45 99  1  0
 47100  1  0
 49101  1  0
 51102  1  0
 52103  1  0
 53104  1  0
 54105  1  0
 55106  1  0
 56107  1  0
 58108  1  0
 60109  1  0
 62110  1  0
 65111  1  0
 67112  1  0
 69113  1  0
 71114  1  0
 73115  1  0
 74116  1  0
M  END
