
     RDKit          3D

116132  0  0  0  0  0  0  0  0999 V2000
   -7.3633    5.1198    5.7875 C   0  0  0  0  0  0  0  0  0  0  0  0
   -6.2391    4.5804    6.4051 C   0  0  0  0  0  0  0  0  0  0  0  0
   -5.6513    3.4223    5.8934 C   0  0  0  0  0  0  0  0  0  0  0  0
   -6.1807    2.7893    4.7564 C   0  0  0  0  0  0  0  0  0  0  0  0
   -5.6010    1.6238    4.2280 C   0  0  0  0  0  0  0  0  0  0  0  0
   -6.1315    0.9915    3.0902 C   0  0  0  0  0  0  0  0  0  0  0  0
   -5.5541   -0.1752    2.5576 C   0  0  0  0  0  0  0  0  0  0  0  0
   -6.0674   -0.8300    1.4090 C   0  0  0  0  0  0  0  0  0  0  0  0
   -7.2042   -0.2622    0.7991 C   0  0  0  0  0  0  0  0  0  0  0  0
   -7.7865    0.9025    1.3301 C   0  0  0  0  0  0  0  0  0  0  0  0
   -7.2652    1.5370    2.4672 C   0  0  0  0  0  0  0  0  0  0  0  0
   -7.8486    2.7026    2.9935 C   0  0  0  0  0  0  0  0  0  0  0  0
   -7.3207    3.3363    4.1304 C   0  0  0  0  0  0  0  0  0  0  0  0
   -7.9013    4.5020    4.6574 C   0  0  0  0  0  0  0  0  0  0  0  0
   -7.7539   -0.8604   -0.3415 C   0  0  0  0  0  0  0  0  0  0  0  0
   -7.2054   -2.0161   -0.9110 C   0  0  0  0  0  0  0  0  0  0  0  0
   -7.7895   -2.5766   -2.0611 C   0  0  0  0  0  0  0  0  0  0  0  0
   -7.2685   -3.7295   -2.6660 C   0  0  0  0  0  0  0  0  0  0  0  0
   -7.8516   -4.2871   -3.8163 C   0  0  0  0  0  0  0  0  0  0  0  0
   -7.3153   -5.4339   -4.4037 C   0  0  0  0  0  0  0  0  0  0  0  0
   -6.1907   -6.0363   -3.8489 C   0  0  0  0  0  0  0  0  0  0  0  0
   -5.6023   -5.4924   -2.7064 C   0  0  0  0  0  0  0  0  0  0  0  0
   -6.1322   -4.3387   -2.1045 C   0  0  0  0  0  0  0  0  0  0  0  0
   -5.5536   -3.7761   -0.9536 C   0  0  0  0  0  0  0  0  0  0  0  0
   -6.0678   -2.6114   -0.3284 C   0  0  0  0  0  0  0  0  0  0  0  0
   -5.4967   -2.0162    0.8432 C   0  0  0  0  0  0  0  0  0  0  0  0
   -4.3054   -2.6387    1.4787 C   0  0  0  0  0  0  0  0  0  0  0  0
   -4.5171   -3.6221    2.4639 C   0  0  0  0  0  0  0  0  0  0  0  0
   -3.4455   -4.2473    3.0909 C   0  0  0  0  0  0  0  0  0  0  0  0
   -2.1437   -3.8991    2.7426 C   0  0  0  0  0  0  0  0  0  0  0  0
   -1.8928   -2.9230    1.7659 C   0  0  0  0  0  0  0  0  0  0  0  0
   -0.5712   -2.5858    1.4279 C   0  0  0  0  0  0  0  0  0  0  0  0
   -0.2831   -1.6123    0.4587 C   0  0  0  0  0  0  0  0  0  0  0  0
    1.0394   -1.2759    0.1231 C   0  0  0  0  0  0  0  0  0  0  0  0
    1.3246   -0.2965   -0.8433 C   0  0  0  0  0  0  0  0  0  0  0  0
    2.6467    0.0432   -1.1790 C   0  0  0  0  0  0  0  0  0  0  0  0
    2.9540    1.0299   -2.1459 C   0  0  0  0  0  0  0  0  0  0  0  0
    4.2856    1.3928   -2.5043 C   0  0  0  0  0  0  0  0  0  0  0  0
    5.4778    0.7522   -1.8890 C   0  0  0  0  0  0  0  0  0  0  0  0
    6.0314   -0.4306   -2.4783 C   0  0  0  0  0  0  0  0  0  0  0  0
    5.4991   -1.0622   -3.6314 C   0  0  0  0  0  0  0  0  0  0  0  0
    6.0597   -2.2249   -4.1881 C   0  0  0  0  0  0  0  0  0  0  0  0
    5.5114   -2.8333   -5.3299 C   0  0  0  0  0  0  0  0  0  0  0  0
    6.0821   -3.9876   -5.8678 C   0  0  0  0  0  0  0  0  0  0  0  0
    7.2072   -4.5477   -5.2713 C   0  0  0  0  0  0  0  0  0  0  0  0
    7.7618   -3.9540   -4.1366 C   0  0  0  0  0  0  0  0  0  0  0  0
    7.1966   -2.7917   -3.5849 C   0  0  0  0  0  0  0  0  0  0  0  0
    7.7363   -2.1798   -2.4442 C   0  0  0  0  0  0  0  0  0  0  0  0
    7.1701   -1.0176   -1.8896 C   0  0  0  0  0  0  0  0  0  0  0  0
    7.7381   -0.4396   -0.7473 C   0  0  0  0  0  0  0  0  0  0  0  0
    7.2073    0.7140   -0.1564 C   0  0  0  0  0  0  0  0  0  0  0  0
    7.8110    1.2565    0.9924 C   0  0  0  0  0  0  0  0  0  0  0  0
    7.3103    2.4087    1.6170 C   0  0  0  0  0  0  0  0  0  0  0  0
    7.9170    2.9494    2.7642 C   0  0  0  0  0  0  0  0  0  0  0  0
    7.4106    4.1028    3.3858 C   0  0  0  0  0  0  0  0  0  0  0  0
    8.0160    4.6455    4.5316 C   0  0  0  0  0  0  0  0  0  0  0  0
    7.5000    5.7926    5.1365 C   0  0  0  0  0  0  0  0  0  0  0  0
    6.3728    6.4112    4.6048 C   0  0  0  0  0  0  0  0  0  0  0  0
    5.7599    5.8835    3.4671 C   0  0  0  0  0  0  0  0  0  0  0  0
    6.2677    4.7300    2.8465 C   0  0  0  0  0  0  0  0  0  0  0  0
    5.6638    4.1866    1.7005 C   0  0  0  0  0  0  0  0  0  0  0  0
    6.1739    3.0333    1.0792 C   0  0  0  0  0  0  0  0  0  0  0  0
    5.5736    2.4879   -0.0698 C   0  0  0  0  0  0  0  0  0  0  0  0
    6.0683    1.3266   -0.7167 C   0  0  0  0  0  0  0  0  0  0  0  0
    4.4965    2.3891   -3.4768 C   0  0  0  0  0  0  0  0  0  0  0  0
    3.4246    3.0239   -4.0932 C   0  0  0  0  0  0  0  0  0  0  0  0
    2.1230    2.6715   -3.7483 C   0  0  0  0  0  0  0  0  0  0  0  0
    1.8730    1.6832   -2.7838 C   0  0  0  0  0  0  0  0  0  0  0  0
    0.5517    1.3411   -2.4506 C   0  0  0  0  0  0  0  0  0  0  0  0
    0.2637    0.3604   -1.4886 C   0  0  0  0  0  0  0  0  0  0  0  0
   -1.0588    0.0217   -1.1554 C   0  0  0  0  0  0  0  0  0  0  0  0
   -1.3439   -0.9582   -0.1894 C   0  0  0  0  0  0  0  0  0  0  0  0
   -2.6660   -1.2985    0.1451 C   0  0  0  0  0  0  0  0  0  0  0  0
   -2.9735   -2.2771    1.1201 C   0  0  0  0  0  0  0  0  0  0  0  0
   -7.8228    6.0213    6.1846 H   0  0  0  0  0  0  0  0  0  0  0  0
   -5.8188    5.0595    7.2855 H   0  0  0  0  0  0  0  0  0  0  0  0
   -4.7734    3.0149    6.3899 H   0  0  0  0  0  0  0  0  0  0  0  0
   -4.7201    1.2018    4.7090 H   0  0  0  0  0  0  0  0  0  0  0  0
   -4.6730   -0.5801    3.0542 H   0  0  0  0  0  0  0  0  0  0  0  0
   -8.6650    1.3272    0.8466 H   0  0  0  0  0  0  0  0  0  0  0  0
   -8.7275    3.1238    2.5094 H   0  0  0  0  0  0  0  0  0  0  0  0
   -8.7807    4.9388    4.1894 H   0  0  0  0  0  0  0  0  0  0  0  0
   -8.6336   -0.4114   -0.8017 H   0  0  0  0  0  0  0  0  0  0  0  0
   -8.6686   -2.1050   -2.4978 H   0  0  0  0  0  0  0  0  0  0  0  0
   -8.7304   -3.8289   -4.2642 H   0  0  0  0  0  0  0  0  0  0  0  0
   -7.7755   -5.8545   -5.2938 H   0  0  0  0  0  0  0  0  0  0  0  0
   -5.7697   -6.9288   -4.3042 H   0  0  0  0  0  0  0  0  0  0  0  0
   -4.7227   -5.9758   -2.2868 H   0  0  0  0  0  0  0  0  0  0  0  0
   -4.6722   -4.2624   -0.5376 H   0  0  0  0  0  0  0  0  0  0  0  0
   -5.5322   -3.9020    2.7414 H   0  0  0  0  0  0  0  0  0  0  0  0
   -3.6247   -5.0051    3.8490 H   0  0  0  0  0  0  0  0  0  0  0  0
   -1.3177   -4.3999    3.2442 H   0  0  0  0  0  0  0  0  0  0  0  0
    0.2526   -3.0903    1.9304 H   0  0  0  0  0  0  0  0  0  0  0  0
    1.8619   -1.7832    0.6246 H   0  0  0  0  0  0  0  0  0  0  0  0
    3.4577   -0.4761   -0.6700 H   0  0  0  0  0  0  0  0  0  0  0  0
    4.6174   -0.6417   -4.1133 H   0  0  0  0  0  0  0  0  0  0  0  0
    4.6310   -2.4096   -5.8085 H   0  0  0  0  0  0  0  0  0  0  0  0
    5.6469   -4.4478   -6.7510 H   0  0  0  0  0  0  0  0  0  0  0  0
    7.6535   -5.4469   -5.6875 H   0  0  0  0  0  0  0  0  0  0  0  0
    8.6407   -4.4066   -3.6834 H   0  0  0  0  0  0  0  0  0  0  0  0
    8.6164   -2.6198   -1.9775 H   0  0  0  0  0  0  0  0  0  0  0  0
    8.6192   -0.9025   -0.3039 H   0  0  0  0  0  0  0  0  0  0  0  0
    8.6913    0.7712    1.4113 H   0  0  0  0  0  0  0  0  0  0  0  0
    8.7979    2.4643    3.1798 H   0  0  0  0  0  0  0  0  0  0  0  0
    8.8980    4.1767    4.9622 H   0  0  0  0  0  0  0  0  0  0  0  0
    7.9792    6.2024    6.0220 H   0  0  0  0  0  0  0  0  0  0  0  0
    5.9699    7.3051    5.0742 H   0  0  0  0  0  0  0  0  0  0  0  0
    4.8798    6.3814    3.0657 H   0  0  0  0  0  0  0  0  0  0  0  0
    4.7808    4.6683    1.2838 H   0  0  0  0  0  0  0  0  0  0  0  0
    4.6904    2.9858   -0.4683 H   0  0  0  0  0  0  0  0  0  0  0  0
    5.5115    2.6702   -3.7536 H   0  0  0  0  0  0  0  0  0  0  0  0
    3.6032    3.7912   -4.8418 H   0  0  0  0  0  0  0  0  0  0  0  0
    1.2967    3.1790   -4.2424 H   0  0  0  0  0  0  0  0  0  0  0  0
   -0.2720    1.8491   -2.9496 H   0  0  0  0  0  0  0  0  0  0  0  0
   -1.8815    0.5311   -1.6542 H   0  0  0  0  0  0  0  0  0  0  0  0
   -3.4767   -0.7834   -0.3685 H   0  0  0  0  0  0  0  0  0  0  0  0
  1  2  4  0
  2  3  4  0
  3  4  4  0
  4  5  4  0
  5  6  4  0
  6  7  4  0
  7  8  4  0
  8  9  4  0
  9 10  4  0
 10 11  4  0
 11 12  4  0
 12 13  4  0
 13 14  4  0
  9 15  4  0
 15 16  4  0
 16 17  4  0
 17 18  4  0
 18 19  4  0
 19 20  4  0
 20 21  4  0
 21 22  4  0
 22 23  4  0
 23 24  4  0
 24 25  4  0
 25 26  4  0
 26 27  1  0
 27 28  4  0
 28 29  4  0
 29 30  4  0
 30 31  4  0
 31 32  4  0
 32 33  4  0
 33 34  4  0
 34 35  4  0
 35 36  4  0
 36 37  4  0
 37 38  4  0
 38 39  1  0
 39 40  4  0
 40 41  4  0
 41 42  4  0
 42 43  4  0
 43 44  4  0
 44 45  4  0
 45 46  4  0
 46 47  4  0
 47 48  4  0
 48 49  4  0
 49 50  4  0
 50 51  4  0
 51 52  4  0
 52 53  4  0
 53 54  4  0
 54 55  4  0
 55 56  4  0
 56 57  4  0
 57 58  4  0
 58 59  4  0
 59 60  4  0
 60 61  4  0
 61 62  4  0
 62 63  4  0
 63 64  4  0
 38 65  4  0
 65 66  4  0
 66 67  4  0
 67 68  4  0
 68 69  4  0
 69 70  4  0
 70 71  4  0
 71 72  4  0
 72 73  4  0
 73 74  4  0
 14  1  4  0
 25 16  4  0
 74 27  4  0
 13  4  4  0
 23 18  4  0
 74 31  4  0
 11  6  4  0
 72 33  4  0
 26  8  4  0
 70 35  4  0
 68 37  4  0
 64 39  4  0
 49 40  4  0
 64 51  4  0
 47 42  4  0
 62 53  4  0
 60 55  4  0
  1 75  1  0
  2 76  1  0
  3 77  1  0
  5 78  1  0
  7 79  1  0
 10 80  1  0
 12 81  1  0
 14 82  1  0
 15 83  1  0
 17 84  1  0
 19 85  1  0
 20 86  1  0
 21 87  1  0
 22 88  1  0
 24 89  1  0
 28 90  1  0
 29 91  1  0
 30 92  1  0
 32 93  1  0
 34 94  1  0
 36 95  1  0
 41 96  1  0
 43 97  1  0
 44 98  1  0
 45 99  1  0
 46100  1  0
 48101  1  0
 50102  1  0
 52103  1  0
 54104  1  0
 56105  1  0
 57106  1  0
 58107  1  0
 59108  1  0
 61109  1  0
 63110  1  0
 65111  1  0
 66112  1  0
 67113  1  0
 69114  1  0
 71115  1  0
 73116  1  0
M  END
