
     RDKit          3D

 92104  0  0  0  0  0  0  0  0999 V2000
   -7.8022    0.3422    3.6537 C   0  0  0  0  0  0  0  0  0  0  0  0
   -6.7782    1.2754    3.7157 C   0  0  0  0  0  0  0  0  0  0  0  0
   -6.0860    1.6254    2.5540 C   0  0  0  0  0  0  0  0  0  0  0  0
   -6.3947    1.0542    1.2941 C   0  0  0  0  0  0  0  0  0  0  0  0
   -7.4382    0.1029    1.2553 C   0  0  0  0  0  0  0  0  0  0  0  0
   -8.1291   -0.2400    2.4311 C   0  0  0  0  0  0  0  0  0  0  0  0
   -7.7844   -0.4999    0.0402 C   0  0  0  0  0  0  0  0  0  0  0  0
   -7.1245   -0.1905   -1.1557 C   0  0  0  0  0  0  0  0  0  0  0  0
   -7.5069   -0.8240   -2.3517 C   0  0  0  0  0  0  0  0  0  0  0  0
   -6.8719   -0.5445   -3.5705 C   0  0  0  0  0  0  0  0  0  0  0  0
   -7.2547   -1.1784   -4.7646 C   0  0  0  0  0  0  0  0  0  0  0  0
   -6.6085   -0.8866   -5.9667 C   0  0  0  0  0  0  0  0  0  0  0  0
   -5.5723    0.0414   -5.9895 C   0  0  0  0  0  0  0  0  0  0  0  0
   -5.1825    0.6779   -4.8103 C   0  0  0  0  0  0  0  0  0  0  0  0
   -5.8251    0.3941   -3.5934 C   0  0  0  0  0  0  0  0  0  0  0  0
   -5.4472    1.0253   -2.3957 C   0  0  0  0  0  0  0  0  0  0  0  0
   -6.0789    0.7560   -1.1548 C   0  0  0  0  0  0  0  0  0  0  0  0
   -5.7126    1.3854    0.0792 C   0  0  0  0  0  0  0  0  0  0  0  0
   -4.6243    2.3984    0.0951 C   0  0  0  0  0  0  0  0  0  0  0  0
   -4.9735    3.7477   -0.1059 C   0  0  0  0  0  0  0  0  0  0  0  0
   -4.0037    4.7433   -0.1129 C   0  0  0  0  0  0  0  0  0  0  0  0
   -2.6675    4.4058    0.0802 C   0  0  0  0  0  0  0  0  0  0  0  0
   -2.2804    3.0724    0.2848 C   0  0  0  0  0  0  0  0  0  0  0  0
   -0.9256    2.7524    0.4770 C   0  0  0  0  0  0  0  0  0  0  0  0
   -0.5018    1.4304    0.6845 C   0  0  0  0  0  0  0  0  0  0  0  0
    0.8538    1.1128    0.8766 C   0  0  0  0  0  0  0  0  0  0  0  0
    1.2743   -0.2115    1.0869 C   0  0  0  0  0  0  0  0  0  0  0  0
    2.6296   -0.5312    1.2808 C   0  0  0  0  0  0  0  0  0  0  0  0
    3.0729   -1.8585    1.4909 C   0  0  0  0  0  0  0  0  0  0  0  0
    4.4413   -2.2099    1.6849 C   0  0  0  0  0  0  0  0  0  0  0  0
    5.5332   -1.2005    1.6779 C   0  0  0  0  0  0  0  0  0  0  0  0
    6.1775   -0.8580    0.4448 C   0  0  0  0  0  0  0  0  0  0  0  0
    5.8197   -1.4096   -0.8118 C   0  0  0  0  0  0  0  0  0  0  0  0
    6.4674   -1.0567   -2.0084 C   0  0  0  0  0  0  0  0  0  0  0  0
    6.0920   -1.6156   -3.2416 C   0  0  0  0  0  0  0  0  0  0  0  0
    6.7486   -1.2543   -4.4189 C   0  0  0  0  0  0  0  0  0  0  0  0
    7.7874   -0.3298   -4.3781 C   0  0  0  0  0  0  0  0  0  0  0  0
    8.1692    0.2346   -3.1602 C   0  0  0  0  0  0  0  0  0  0  0  0
    7.5164   -0.1208   -1.9678 C   0  0  0  0  0  0  0  0  0  0  0  0
    7.8828    0.4354   -0.7338 C   0  0  0  0  0  0  0  0  0  0  0  0
    7.2291    0.0820    0.4603 C   0  0  0  0  0  0  0  0  0  0  0  0
    7.6236    0.6654    1.6707 C   0  0  0  0  0  0  0  0  0  0  0  0
    7.0000    0.3489    2.8834 C   0  0  0  0  0  0  0  0  0  0  0  0
    7.4269    0.9640    4.0733 C   0  0  0  0  0  0  0  0  0  0  0  0
    6.8221    0.6693    5.2931 C   0  0  0  0  0  0  0  0  0  0  0  0
    5.7804   -0.2449    5.3381 C   0  0  0  0  0  0  0  0  0  0  0  0
    5.3487   -0.8636    4.1627 C   0  0  0  0  0  0  0  0  0  0  0  0
    5.9435   -0.5884    2.9058 C   0  0  0  0  0  0  0  0  0  0  0  0
    4.7900   -3.5593    1.8866 C   0  0  0  0  0  0  0  0  0  0  0  0
    3.8194   -4.5541    1.8986 C   0  0  0  0  0  0  0  0  0  0  0  0
    2.4830   -4.2160    1.7081 C   0  0  0  0  0  0  0  0  0  0  0  0
    2.0961   -2.8824    1.5045 C   0  0  0  0  0  0  0  0  0  0  0  0
    0.7413   -2.5624    1.3128 C   0  0  0  0  0  0  0  0  0  0  0  0
    0.3182   -1.2407    1.1032 C   0  0  0  0  0  0  0  0  0  0  0  0
   -1.0370   -0.9233    0.9092 C   0  0  0  0  0  0  0  0  0  0  0  0
   -1.4578    0.4011    0.7004 C   0  0  0  0  0  0  0  0  0  0  0  0
   -2.8131    0.7208    0.5068 C   0  0  0  0  0  0  0  0  0  0  0  0
   -3.2567    2.0480    0.2962 C   0  0  0  0  0  0  0  0  0  0  0  0
   -8.3454    0.0654    4.5531 H   0  0  0  0  0  0  0  0  0  0  0  0
   -6.5117    1.7345    4.6639 H   0  0  0  0  0  0  0  0  0  0  0  0
   -5.2871    2.3592    2.6465 H   0  0  0  0  0  0  0  0  0  0  0  0
   -8.9351   -0.9707    2.4028 H   0  0  0  0  0  0  0  0  0  0  0  0
   -8.5909   -1.2321    0.0253 H   0  0  0  0  0  0  0  0  0  0  0  0
   -8.3166   -1.5518   -2.3351 H   0  0  0  0  0  0  0  0  0  0  0  0
   -8.0620   -1.9068   -4.7653 H   0  0  0  0  0  0  0  0  0  0  0  0
   -6.9144   -1.3844   -6.8829 H   0  0  0  0  0  0  0  0  0  0  0  0
   -5.0653    0.2706   -6.9228 H   0  0  0  0  0  0  0  0  0  0  0  0
   -4.3688    1.3992   -4.8459 H   0  0  0  0  0  0  0  0  0  0  0  0
   -4.6322    1.7468   -2.4361 H   0  0  0  0  0  0  0  0  0  0  0  0
   -6.0162    4.0202   -0.2607 H   0  0  0  0  0  0  0  0  0  0  0  0
   -4.2884    5.7801   -0.2708 H   0  0  0  0  0  0  0  0  0  0  0  0
   -1.9229    5.1992    0.0688 H   0  0  0  0  0  0  0  0  0  0  0  0
   -0.1834    3.5490    0.4650 H   0  0  0  0  0  0  0  0  0  0  0  0
    1.5954    1.9096    0.8623 H   0  0  0  0  0  0  0  0  0  0  0  0
    3.3579    0.2786    1.2655 H   0  0  0  0  0  0  0  0  0  0  0  0
    5.0085   -2.1345   -0.8667 H   0  0  0  0  0  0  0  0  0  0  0  0
    5.2807   -2.3388   -3.2918 H   0  0  0  0  0  0  0  0  0  0  0  0
    6.4475   -1.6949   -5.3656 H   0  0  0  0  0  0  0  0  0  0  0  0
    8.3008   -0.0464   -5.2930 H   0  0  0  0  0  0  0  0  0  0  0  0
    8.9825    0.9565   -3.1478 H   0  0  0  0  0  0  0  0  0  0  0  0
    8.6947    1.1605   -0.7037 H   0  0  0  0  0  0  0  0  0  0  0  0
    8.4384    1.3886    1.6690 H   0  0  0  0  0  0  0  0  0  0  0  0
    8.2423    1.6847    4.0587 H   0  0  0  0  0  0  0  0  0  0  0  0
    7.1647    1.1541    6.2031 H   0  0  0  0  0  0  0  0  0  0  0  0
    5.2987   -0.4809    6.2832 H   0  0  0  0  0  0  0  0  0  0  0  0
    4.5257   -1.5721    4.2405 H   0  0  0  0  0  0  0  0  0  0  0  0
    5.8336   -3.8331    2.0350 H   0  0  0  0  0  0  0  0  0  0  0  0
    4.1040   -5.5912    2.0552 H   0  0  0  0  0  0  0  0  0  0  0  0
    1.7381   -5.0093    1.7187 H   0  0  0  0  0  0  0  0  0  0  0  0
   -0.0016   -3.3585    1.3255 H   0  0  0  0  0  0  0  0  0  0  0  0
   -1.7787   -1.7204    0.9208 H   0  0  0  0  0  0  0  0  0  0  0  0
   -3.5415   -0.0890    0.5212 H   0  0  0  0  0  0  0  0  0  0  0  0
  1  2  4  0
  2  3  4  0
  3  4  4  0
  4  5  4  0
  5  6  4  0
  5  7  4  0
  7  8  4  0
  8  9  4  0
  9 10  4  0
 10 11  4  0
 11 12  4  0
 12 13  4  0
 13 14  4  0
 14 15  4  0
 15 16  4  0
 16 17  4  0
 17 18  4  0
 18 19  1  0
 19 20  4  0
 20 21  4  0
 21 22  4  0
 22 23  4  0
 23 24  4  0
 24 25  4  0
 25 26  4  0
 26 27  4  0
 27 28  4  0
 28 29  4  0
 29 30  4  0
 30 31  1  0
 31 32  4  0
 32 33  4  0
 33 34  4  0
 34 35  4  0
 35 36  4  0
 36 37  4  0
 37 38  4  0
 38 39  4  0
 39 40  4  0
 40 41  4  0
 41 42  4  0
 42 43  4  0
 43 44  4  0
 44 45  4  0
 45 46  4  0
 46 47  4  0
 47 48  4  0
 30 49  4  0
 49 50  4  0
 50 51  4  0
 51 52  4  0
 52 53  4  0
 53 54  4  0
 54 55  4  0
 55 56  4  0
 56 57  4  0
 57 58  4  0
  6  1  4  0
 17  8  4  0
 58 19  4  0
 18  4  4  0
 58 23  4  0
 15 10  4  0
 56 25  4  0
 54 27  4  0
 52 29  4  0
 48 31  4  0
 41 32  4  0
 48 43  4  0
 39 34  4  0
  1 59  1  0
  2 60  1  0
  3 61  1  0
  6 62  1  0
  7 63  1  0
  9 64  1  0
 11 65  1  0
 12 66  1  0
 13 67  1  0
 14 68  1  0
 16 69  1  0
 20 70  1  0
 21 71  1  0
 22 72  1  0
 24 73  1  0
 26 74  1  0
 28 75  1  0
 33 76  1  0
 35 77  1  0
 36 78  1  0
 37 79  1  0
 38 80  1  0
 40 81  1  0
 42 82  1  0
 44 83  1  0
 45 84  1  0
 46 85  1  0
 47 86  1  0
 49 87  1  0
 50 88  1  0
 51 89  1  0
 53 90  1  0
 55 91  1  0
 57 92  1  0
M  END
