
     RDKit          3D

104118  0  0  0  0  0  0  0  0999 V2000
   -7.3971   -4.5554   -3.5772 C   0  0  0  0  0  0  0  0  0  0  0  0
   -6.3906   -5.1437   -2.8178 C   0  0  0  0  0  0  0  0  0  0  0  0
   -5.8501   -4.4586   -1.7285 C   0  0  0  0  0  0  0  0  0  0  0  0
   -6.3100   -3.1760   -1.3850 C   0  0  0  0  0  0  0  0  0  0  0  0
   -5.7782   -2.4700   -0.2916 C   0  0  0  0  0  0  0  0  0  0  0  0
   -6.2223   -1.1732    0.0730 C   0  0  0  0  0  0  0  0  0  0  0  0
   -7.2430   -0.5980   -0.7115 C   0  0  0  0  0  0  0  0  0  0  0  0
   -7.7798   -1.3010   -1.8051 C   0  0  0  0  0  0  0  0  0  0  0  0
   -7.3268   -2.5816   -2.1533 C   0  0  0  0  0  0  0  0  0  0  0  0
   -7.8628   -3.2818   -3.2477 C   0  0  0  0  0  0  0  0  0  0  0  0
   -7.7242    0.6794   -0.3988 C   0  0  0  0  0  0  0  0  0  0  0  0
   -7.2207    1.4193    0.6782 C   0  0  0  0  0  0  0  0  0  0  0  0
   -7.7384    2.6977    0.9535 C   0  0  0  0  0  0  0  0  0  0  0  0
   -7.2632    3.4719    2.0219 C   0  0  0  0  0  0  0  0  0  0  0  0
   -7.7837    4.7478    2.2976 C   0  0  0  0  0  0  0  0  0  0  0  0
   -7.2965    5.5019    3.3659 C   0  0  0  0  0  0  0  0  0  0  0  0
   -6.2834    4.9904    4.1706 C   0  0  0  0  0  0  0  0  0  0  0  0
   -5.7578    3.7246    3.9072 C   0  0  0  0  0  0  0  0  0  0  0  0
   -6.2397    2.9541    2.8354 C   0  0  0  0  0  0  0  0  0  0  0  0
   -5.7249    1.6762    2.5552 C   0  0  0  0  0  0  0  0  0  0  0  0
   -6.1969    0.8776    1.4821 C   0  0  0  0  0  0  0  0  0  0  0  0
   -5.6943   -0.4295    1.1782 C   0  0  0  0  0  0  0  0  0  0  0  0
   -4.6241   -1.0220    2.0239 C   0  0  0  0  0  0  0  0  0  0  0  0
   -5.0097   -1.7388    3.1728 C   0  0  0  0  0  0  0  0  0  0  0  0
   -4.0599   -2.3129    4.0093 C   0  0  0  0  0  0  0  0  0  0  0  0
   -2.7073   -2.1840    3.7084 C   0  0  0  0  0  0  0  0  0  0  0  0
   -2.2839   -1.4811    2.5702 C   0  0  0  0  0  0  0  0  0  0  0  0
   -0.9135   -1.3678    2.2809 C   0  0  0  0  0  0  0  0  0  0  0  0
   -0.4527   -0.6789    1.1482 C   0  0  0  0  0  0  0  0  0  0  0  0
    0.9184   -0.5763    0.8553 C   0  0  0  0  0  0  0  0  0  0  0  0
    1.3770    0.1090   -0.2828 C   0  0  0  0  0  0  0  0  0  0  0  0
    2.7480    0.2072   -0.5816 C   0  0  0  0  0  0  0  0  0  0  0  0
    3.2277    0.8917   -1.7235 C   0  0  0  0  0  0  0  0  0  0  0  0
    4.6113    1.0064   -2.0503 C   0  0  0  0  0  0  0  0  0  0  0  0
    5.6840    0.4151   -1.2067 C   0  0  0  0  0  0  0  0  0  0  0  0
    6.2605    1.1884   -0.1471 C   0  0  0  0  0  0  0  0  0  0  0  0
    5.8534    2.5071    0.1797 C   0  0  0  0  0  0  0  0  0  0  0  0
    6.4379    3.2463    1.2228 C   0  0  0  0  0  0  0  0  0  0  0  0
    6.0177    4.5525    1.5247 C   0  0  0  0  0  0  0  0  0  0  0  0
    6.6104    5.2716    2.5636 C   0  0  0  0  0  0  0  0  0  0  0  0
    7.6302    4.6938    3.3129 C   0  0  0  0  0  0  0  0  0  0  0  0
    8.0573    3.3969    3.0241 C   0  0  0  0  0  0  0  0  0  0  0  0
    7.4684    2.6623    1.9808 C   0  0  0  0  0  0  0  0  0  0  0  0
    7.8817    1.3580    1.6727 C   0  0  0  0  0  0  0  0  0  0  0  0
    7.2946    0.6230    0.6269 C   0  0  0  0  0  0  0  0  0  0  0  0
    7.7401   -0.6753    0.3496 C   0  0  0  0  0  0  0  0  0  0  0  0
    7.1871   -1.4457   -0.6808 C   0  0  0  0  0  0  0  0  0  0  0  0
    7.6717   -2.7439   -0.9230 C   0  0  0  0  0  0  0  0  0  0  0  0
    7.1465   -3.5493   -1.9438 C   0  0  0  0  0  0  0  0  0  0  0  0
    7.6347   -4.8448   -2.1872 C   0  0  0  0  0  0  0  0  0  0  0  0
    7.0970   -5.6300   -3.2080 C   0  0  0  0  0  0  0  0  0  0  0  0
    6.0645   -5.1303   -3.9956 C   0  0  0  0  0  0  0  0  0  0  0  0
    5.5708   -3.8454   -3.7639 C   0  0  0  0  0  0  0  0  0  0  0  0
    6.1048   -3.0430   -2.7416 C   0  0  0  0  0  0  0  0  0  0  0  0
    5.6245   -1.7443   -2.4962 C   0  0  0  0  0  0  0  0  0  0  0  0
    6.1482   -0.9141   -1.4725 C   0  0  0  0  0  0  0  0  0  0  0  0
    4.9950    1.7081   -3.2095 C   0  0  0  0  0  0  0  0  0  0  0  0
    4.0450    2.2915   -4.0394 C   0  0  0  0  0  0  0  0  0  0  0  0
    2.6940    2.1827   -3.7242 C   0  0  0  0  0  0  0  0  0  0  0  0
    2.2721    1.4911   -2.5784 C   0  0  0  0  0  0  0  0  0  0  0  0
    0.9024    1.3933   -2.2792 C   0  0  0  0  0  0  0  0  0  0  0  0
    0.4425    0.7091   -1.1435 C   0  0  0  0  0  0  0  0  0  0  0  0
   -0.9286    0.6092   -0.8492 C   0  0  0  0  0  0  0  0  0  0  0  0
   -1.3867   -0.0805    0.2861 C   0  0  0  0  0  0  0  0  0  0  0  0
   -2.7579   -0.1888    0.5783 C   0  0  0  0  0  0  0  0  0  0  0  0
   -3.2391   -0.8871    1.7112 C   0  0  0  0  0  0  0  0  0  0  0  0
   -7.8198   -5.0861   -4.4262 H   0  0  0  0  0  0  0  0  0  0  0  0
   -6.0245   -6.1349   -3.0719 H   0  0  0  0  0  0  0  0  0  0  0  0
   -5.0629   -4.9331   -1.1465 H   0  0  0  0  0  0  0  0  0  0  0  0
   -4.9914   -2.9490    0.2896 H   0  0  0  0  0  0  0  0  0  0  0  0
   -8.5675   -0.8418   -2.4003 H   0  0  0  0  0  0  0  0  0  0  0  0
   -8.6496   -2.8369   -3.8526 H   0  0  0  0  0  0  0  0  0  0  0  0
   -8.5150    1.1105   -1.0119 H   0  0  0  0  0  0  0  0  0  0  0  0
   -8.5299    3.1004    0.3234 H   0  0  0  0  0  0  0  0  0  0  0  0
   -8.5753    5.1631    1.6786 H   0  0  0  0  0  0  0  0  0  0  0  0
   -7.7073    6.4873    3.5683 H   0  0  0  0  0  0  0  0  0  0  0  0
   -5.9005    5.5748    5.0031 H   0  0  0  0  0  0  0  0  0  0  0  0
   -4.9659    3.3404    4.5466 H   0  0  0  0  0  0  0  0  0  0  0  0
   -4.9314    1.2959    3.1969 H   0  0  0  0  0  0  0  0  0  0  0  0
   -6.0657   -1.8457    3.4158 H   0  0  0  0  0  0  0  0  0  0  0  0
   -4.3739   -2.8598    4.8944 H   0  0  0  0  0  0  0  0  0  0  0  0
   -1.9795   -2.6424    4.3751 H   0  0  0  0  0  0  0  0  0  0  0  0
   -0.1876   -1.8283    2.9493 H   0  0  0  0  0  0  0  0  0  0  0  0
    1.6426   -1.0398    1.5232 H   0  0  0  0  0  0  0  0  0  0  0  0
    3.4592   -0.2641    0.0957 H   0  0  0  0  0  0  0  0  0  0  0  0
    5.0548    2.9779   -0.3921 H   0  0  0  0  0  0  0  0  0  0  0  0
    5.2220    5.0195    0.9484 H   0  0  0  0  0  0  0  0  0  0  0  0
    6.2743    6.2809    2.7859 H   0  0  0  0  0  0  0  0  0  0  0  0
    8.0940    5.2513    4.1221 H   0  0  0  0  0  0  0  0  0  0  0  0
    8.8558    2.9617    3.6208 H   0  0  0  0  0  0  0  0  0  0  0  0
    8.6795    0.9064    2.2603 H   0  0  0  0  0  0  0  0  0  0  0  0
    8.5428   -1.0983    0.9529 H   0  0  0  0  0  0  0  0  0  0  0  0
    8.4773   -3.1372   -0.3048 H   0  0  0  0  0  0  0  0  0  0  0  0
    8.4406   -5.2511   -1.5804 H   0  0  0  0  0  0  0  0  0  0  0  0
    7.4838   -6.6299   -3.3867 H   0  0  0  0  0  0  0  0  0  0  0  0
    5.6414   -5.7382   -4.7908 H   0  0  0  0  0  0  0  0  0  0  0  0
    4.7628   -3.4716   -4.3893 H   0  0  0  0  0  0  0  0  0  0  0  0
    4.8159   -1.3731   -3.1246 H   0  0  0  0  0  0  0  0  0  0  0  0
    6.0500    1.7995   -3.4634 H   0  0  0  0  0  0  0  0  0  0  0  0
    4.3572    2.8301   -4.9300 H   0  0  0  0  0  0  0  0  0  0  0  0
    1.9654    2.6462   -4.3863 H   0  0  0  0  0  0  0  0  0  0  0  0
    0.1772    1.8584   -2.9451 H   0  0  0  0  0  0  0  0  0  0  0  0
   -1.6525    1.0732   -1.5169 H   0  0  0  0  0  0  0  0  0  0  0  0
   -3.4687    0.2813   -0.1001 H   0  0  0  0  0  0  0  0  0  0  0  0
  1  2  4  0
  2  3  4  0
  3  4  4  0
  4  5  4  0
  5  6  4  0
  6  7  4  0
  7  8  4  0
  8  9  4  0
  9 10  4  0
  7 11  4  0
 11 12  4  0
 12 13  4  0
 13 14  4  0
 14 15  4  0
 15 16  4  0
 16 17  4  0
 17 18  4  0
 18 19  4  0
 19 20  4  0
 20 21  4  0
 21 22  4  0
 22 23  1  0
 23 24  4  0
 24 25  4  0
 25 26  4  0
 26 27  4  0
 27 28  4  0
 28 29  4  0
 29 30  4  0
 30 31  4  0
 31 32  4  0
 32 33  4  0
 33 34  4  0
 34 35  1  0
 35 36  4  0
 36 37  4  0
 37 38  4  0
 38 39  4  0
 39 40  4  0
 40 41  4  0
 41 42  4  0
 42 43  4  0
 43 44  4  0
 44 45  4  0
 45 46  4  0
 46 47  4  0
 47 48  4  0
 48 49  4  0
 49 50  4  0
 50 51  4  0
 51 52  4  0
 52 53  4  0
 53 54  4  0
 54 55  4  0
 55 56  4  0
 34 57  4  0
 57 58  4  0
 58 59  4  0
 59 60  4  0
 60 61  4  0
 61 62  4  0
 62 63  4  0
 63 64  4  0
 64 65  4  0
 65 66  4  0
 10  1  4  0
 21 12  4  0
 66 23  4  0
  9  4  4  0
 19 14  4  0
 66 27  4  0
 22  6  4  0
 64 29  4  0
 62 31  4  0
 60 33  4  0
 56 35  4  0
 45 36  4  0
 56 47  4  0
 43 38  4  0
 54 49  4  0
  1 67  1  0
  2 68  1  0
  3 69  1  0
  5 70  1  0
  8 71  1  0
 10 72  1  0
 11 73  1  0
 13 74  1  0
 15 75  1  0
 16 76  1  0
 17 77  1  0
 18 78  1  0
 20 79  1  0
 24 80  1  0
 25 81  1  0
 26 82  1  0
 28 83  1  0
 30 84  1  0
 32 85  1  0
 37 86  1  0
 39 87  1  0
 40 88  1  0
 41 89  1  0
 42 90  1  0
 44 91  1  0
 46 92  1  0
 48 93  1  0
 50 94  1  0
 51 95  1  0
 52 96  1  0
 53 97  1  0
 55 98  1  0
 57 99  1  0
 58100  1  0
 59101  1  0
 61102  1  0
 63103  1  0
 65104  1  0
M  END
