
     RDKit          3D

104118  0  0  0  0  0  0  0  0999 V2000
  -14.8085   -4.0112    3.1042 C   0  0  0  0  0  0  0  0  0  0  0  0
  -14.2247   -5.0979    2.4608 C   0  0  0  0  0  0  0  0  0  0  0  0
  -13.0590   -4.9217    1.7138 C   0  0  0  0  0  0  0  0  0  0  0  0
  -12.4621   -3.6550    1.6010 C   0  0  0  0  0  0  0  0  0  0  0  0
  -11.2889   -3.4610    0.8530 C   0  0  0  0  0  0  0  0  0  0  0  0
  -10.6923   -2.1935    0.7406 C   0  0  0  0  0  0  0  0  0  0  0  0
   -9.5188   -1.9993   -0.0076 C   0  0  0  0  0  0  0  0  0  0  0  0
   -8.9213   -0.7325   -0.1206 C   0  0  0  0  0  0  0  0  0  0  0  0
   -7.7477   -0.5390   -0.8690 C   0  0  0  0  0  0  0  0  0  0  0  0
   -7.1503    0.7275   -0.9818 C   0  0  0  0  0  0  0  0  0  0  0  0
   -5.9760    0.9210   -1.7303 C   0  0  0  0  0  0  0  0  0  0  0  0
   -5.3791    2.1868   -1.8400 C   0  0  0  0  0  0  0  0  0  0  0  0
   -4.1505    2.3717   -2.6281 C   0  0  0  0  0  0  0  0  0  0  0  0
   -4.2802    2.7010   -3.9895 C   0  0  0  0  0  0  0  0  0  0  0  0
   -3.1591    2.8900   -4.7901 C   0  0  0  0  0  0  0  0  0  0  0  0
   -1.8877    2.7527   -4.2412 C   0  0  0  0  0  0  0  0  0  0  0  0
   -1.7179    2.4253   -2.8875 C   0  0  0  0  0  0  0  0  0  0  0  0
   -0.4258    2.2919   -2.3515 C   0  0  0  0  0  0  0  0  0  0  0  0
   -0.2171    1.9663   -1.0024 C   0  0  0  0  0  0  0  0  0  0  0  0
    1.0760    1.8347   -0.4685 C   0  0  0  0  0  0  0  0  0  0  0  0
    1.2815    1.5094    0.8829 C   0  0  0  0  0  0  0  0  0  0  0  0
    2.5743    1.3788    1.4191 C   0  0  0  0  0  0  0  0  0  0  0  0
    2.8035    1.0539    2.7776 C   0  0  0  0  0  0  0  0  0  0  0  0
    4.1040    0.9188    3.3451 C   0  0  0  0  0  0  0  0  0  0  0  0
    5.3313    1.1137    2.5575 C   0  0  0  0  0  0  0  0  0  0  0  0
    5.9651    0.0246    1.9394 C   0  0  0  0  0  0  0  0  0  0  0  0
    7.1378    0.1932    1.1829 C   0  0  0  0  0  0  0  0  0  0  0  0
    7.7722   -0.8955    0.5620 C   0  0  0  0  0  0  0  0  0  0  0  0
    8.9441   -0.7272   -0.1947 C   0  0  0  0  0  0  0  0  0  0  0  0
    9.5783   -1.8164   -0.8156 C   0  0  0  0  0  0  0  0  0  0  0  0
   10.7503   -1.6493   -1.5725 C   0  0  0  0  0  0  0  0  0  0  0  0
   11.3839   -2.7393   -2.1931 C   0  0  0  0  0  0  0  0  0  0  0  0
   12.5555   -2.5723   -2.9499 C   0  0  0  0  0  0  0  0  0  0  0  0
   13.1892   -3.6616   -3.5705 C   0  0  0  0  0  0  0  0  0  0  0  0
   14.3529   -3.4792   -4.3192 C   0  0  0  0  0  0  0  0  0  0  0  0
   14.8978   -2.2064   -4.4570 C   0  0  0  0  0  0  0  0  0  0  0  0
   14.2798   -1.1141   -3.8464 C   0  0  0  0  0  0  0  0  0  0  0  0
   13.1080   -1.2815   -3.0896 C   0  0  0  0  0  0  0  0  0  0  0  0
   12.4739   -0.1925   -2.4688 C   0  0  0  0  0  0  0  0  0  0  0  0
   11.3018   -0.3608   -1.7120 C   0  0  0  0  0  0  0  0  0  0  0  0
   10.6674    0.7284   -1.0910 C   0  0  0  0  0  0  0  0  0  0  0  0
    9.4954    0.5612   -0.3341 C   0  0  0  0  0  0  0  0  0  0  0  0
    8.8615    1.6510    0.2867 C   0  0  0  0  0  0  0  0  0  0  0  0
    7.6900    1.4832    1.0432 C   0  0  0  0  0  0  0  0  0  0  0  0
    7.0570    2.5714    1.6629 C   0  0  0  0  0  0  0  0  0  0  0  0
    5.8921    2.3880    2.4118 C   0  0  0  0  0  0  0  0  0  0  0  0
    4.2353    0.5885    4.7062 C   0  0  0  0  0  0  0  0  0  0  0  0
    3.1148    0.3933    5.5061 C   0  0  0  0  0  0  0  0  0  0  0  0
    1.8430    0.5261    4.9570 C   0  0  0  0  0  0  0  0  0  0  0  0
    1.6716    0.8541    3.6036 C   0  0  0  0  0  0  0  0  0  0  0  0
    0.3790    0.9842    3.0673 C   0  0  0  0  0  0  0  0  0  0  0  0
    0.1697    1.3101    1.7183 C   0  0  0  0  0  0  0  0  0  0  0  0
   -1.1236    1.4414    1.1842 C   0  0  0  0  0  0  0  0  0  0  0  0
   -1.3292    1.7678   -0.1671 C   0  0  0  0  0  0  0  0  0  0  0  0
   -2.6219    1.9008   -0.7034 C   0  0  0  0  0  0  0  0  0  0  0  0
   -2.8505    2.2296   -2.0611 C   0  0  0  0  0  0  0  0  0  0  0  0
   -5.9796    3.2706   -1.1886 C   0  0  0  0  0  0  0  0  0  0  0  0
   -7.1466    3.0941   -0.4413 C   0  0  0  0  0  0  0  0  0  0  0  0
   -7.7422    1.8285   -0.3293 C   0  0  0  0  0  0  0  0  0  0  0  0
   -8.9154    1.6346    0.4186 C   0  0  0  0  0  0  0  0  0  0  0  0
   -9.5122    0.3674    0.5309 C   0  0  0  0  0  0  0  0  0  0  0  0
  -10.6858    0.1733    1.2789 C   0  0  0  0  0  0  0  0  0  0  0  0
  -11.2832   -1.0934    1.3920 C   0  0  0  0  0  0  0  0  0  0  0  0
  -12.4569   -1.2865    2.1406 C   0  0  0  0  0  0  0  0  0  0  0  0
  -13.0541   -2.5529    2.2535 C   0  0  0  0  0  0  0  0  0  0  0  0
  -14.2273   -2.7464    3.0017 C   0  0  0  0  0  0  0  0  0  0  0  0
  -15.7162   -4.1462    3.6864 H   0  0  0  0  0  0  0  0  0  0  0  0
  -14.6754   -6.0837    2.5393 H   0  0  0  0  0  0  0  0  0  0  0  0
  -12.6180   -5.7839    1.2184 H   0  0  0  0  0  0  0  0  0  0  0  0
  -10.8325   -4.3115    0.3500 H   0  0  0  0  0  0  0  0  0  0  0  0
   -9.0622   -2.8498   -0.5109 H   0  0  0  0  0  0  0  0  0  0  0  0
   -7.2909   -1.3892   -1.3728 H   0  0  0  0  0  0  0  0  0  0  0  0
   -5.5114    0.0754   -2.2357 H   0  0  0  0  0  0  0  0  0  0  0  0
   -5.2700    2.8111   -4.4296 H   0  0  0  0  0  0  0  0  0  0  0  0
   -3.2761    3.1441   -5.8402 H   0  0  0  0  0  0  0  0  0  0  0  0
   -1.0229    2.9049   -4.8840 H   0  0  0  0  0  0  0  0  0  0  0  0
    0.4372    2.4451   -2.9977 H   0  0  0  0  0  0  0  0  0  0  0  0
    1.9381    1.9884   -1.1154 H   0  0  0  0  0  0  0  0  0  0  0  0
    3.4251    1.5347    0.7572 H   0  0  0  0  0  0  0  0  0  0  0  0
    5.5306   -0.9681    2.0494 H   0  0  0  0  0  0  0  0  0  0  0  0
    7.3459   -1.8915    0.6697 H   0  0  0  0  0  0  0  0  0  0  0  0
    9.1519   -2.8123   -0.7078 H   0  0  0  0  0  0  0  0  0  0  0  0
   10.9580   -3.7353   -2.0858 H   0  0  0  0  0  0  0  0  0  0  0  0
   12.7787   -4.6643   -3.4745 H   0  0  0  0  0  0  0  0  0  0  0  0
   14.8325   -4.3312   -4.7938 H   0  0  0  0  0  0  0  0  0  0  0  0
   15.8039   -2.0621   -5.0396 H   0  0  0  0  0  0  0  0  0  0  0  0
   14.7210   -0.1271   -3.9658 H   0  0  0  0  0  0  0  0  0  0  0  0
   12.9003    0.8031   -2.5770 H   0  0  0  0  0  0  0  0  0  0  0  0
   11.0934    1.7243   -1.1989 H   0  0  0  0  0  0  0  0  0  0  0  0
    9.2876    2.6469    0.1792 H   0  0  0  0  0  0  0  0  0  0  0  0
    7.4665    3.5747    1.5680 H   0  0  0  0  0  0  0  0  0  0  0  0
    5.4186    3.2482    2.8812 H   0  0  0  0  0  0  0  0  0  0  0  0
    5.2255    0.4839    5.1466 H   0  0  0  0  0  0  0  0  0  0  0  0
    3.2323    0.1389    6.5561 H   0  0  0  0  0  0  0  0  0  0  0  0
    0.9788    0.3697    5.5995 H   0  0  0  0  0  0  0  0  0  0  0  0
   -0.4836    0.8287    3.7134 H   0  0  0  0  0  0  0  0  0  0  0  0
   -1.9856    1.2870    1.8310 H   0  0  0  0  0  0  0  0  0  0  0  0
   -3.4728    1.7437   -0.0421 H   0  0  0  0  0  0  0  0  0  0  0  0
   -5.5363    4.2621   -1.2591 H   0  0  0  0  0  0  0  0  0  0  0  0
   -7.5876    3.9567    0.0534 H   0  0  0  0  0  0  0  0  0  0  0  0
   -9.3719    2.4847    0.9223 H   0  0  0  0  0  0  0  0  0  0  0  0
  -11.1425    1.0237    1.7823 H   0  0  0  0  0  0  0  0  0  0  0  0
  -12.9140   -0.4368    2.6444 H   0  0  0  0  0  0  0  0  0  0  0  0
  -14.6986   -1.9093    3.5119 H   0  0  0  0  0  0  0  0  0  0  0  0
  1  2  4  0
  2  3  4  0
  3  4  4  0
  4  5  4  0
  5  6  4  0
  6  7  4  0
  7  8  4  0
  8  9  4  0
  9 10  4  0
 10 11  4  0
 11 12  4  0
 12 13  1  0
 13 14  4  0
 14 15  4  0
 15 16  4  0
 16 17  4  0
 17 18  4  0
 18 19  4  0
 19 20  4  0
 20 21  4  0
 21 22  4  0
 22 23  4  0
 23 24  4  0
 24 25  1  0
 25 26  4  0
 26 27  4  0
 27 28  4  0
 28 29  4  0
 29 30  4  0
 30 31  4  0
 31 32  4  0
 32 33  4  0
 33 34  4  0
 34 35  4  0
 35 36  4  0
 36 37  4  0
 37 38  4  0
 38 39  4  0
 39 40  4  0
 40 41  4  0
 41 42  4  0
 42 43  4  0
 43 44  4  0
 44 45  4  0
 45 46  4  0
 24 47  4  0
 47 48  4  0
 48 49  4  0
 49 50  4  0
 50 51  4  0
 51 52  4  0
 52 53  4  0
 53 54  4  0
 54 55  4  0
 55 56  4  0
 12 57  4  0
 57 58  4  0
 58 59  4  0
 59 60  4  0
 60 61  4  0
 61 62  4  0
 62 63  4  0
 63 64  4  0
 64 65  4  0
 65 66  4  0
 66  1  4  0
 65  4  4  0
 63  6  4  0
 61  8  4  0
 59 10  4  0
 56 13  4  0
 56 17  4  0
 54 19  4  0
 52 21  4  0
 50 23  4  0
 46 25  4  0
 44 27  4  0
 42 29  4  0
 40 31  4  0
 38 33  4  0
  1 67  1  0
  2 68  1  0
  3 69  1  0
  5 70  1  0
  7 71  1  0
  9 72  1  0
 11 73  1  0
 14 74  1  0
 15 75  1  0
 16 76  1  0
 18 77  1  0
 20 78  1  0
 22 79  1  0
 26 80  1  0
 28 81  1  0
 30 82  1  0
 32 83  1  0
 34 84  1  0
 35 85  1  0
 36 86  1  0
 37 87  1  0
 39 88  1  0
 41 89  1  0
 43 90  1  0
 45 91  1  0
 46 92  1  0
 47 93  1  0
 48 94  1  0
 49 95  1  0
 51 96  1  0
 53 97  1  0
 55 98  1  0
 57 99  1  0
 58100  1  0
 60101  1  0
 62102  1  0
 64103  1  0
 66104  1  0
M  END
