
     RDKit          3D

104118  0  0  0  0  0  0  0  0999 V2000
    1.3913    5.8477    1.1274 C   0  0  0  0  0  0  0  0  0  0  0  0
    0.9424    5.0998    0.0439 C   0  0  0  0  0  0  0  0  0  0  0  0
    1.4174    3.8019   -0.1504 C   0  0  0  0  0  0  0  0  0  0  0  0
    2.3486    3.2345    0.7367 C   0  0  0  0  0  0  0  0  0  0  0  0
    2.8416    1.9241    0.5586 C   0  0  0  0  0  0  0  0  0  0  0  0
    3.7641    1.2789    1.4295 C   0  0  0  0  0  0  0  0  0  0  0  0
    4.1966    2.0957    2.5109 C   0  0  0  0  0  0  0  0  0  0  0  0
    3.7229    3.4078    2.6974 C   0  0  0  0  0  0  0  0  0  0  0  0
    2.7975    3.9886    1.8270 C   0  0  0  0  0  0  0  0  0  0  0  0
    2.3147    5.2958    2.0155 C   0  0  0  0  0  0  0  0  0  0  0  0
    5.1153    1.6120    3.4320 C   0  0  0  0  0  0  0  0  0  0  0  0
    5.6177    0.3276    3.3177 C   0  0  0  0  0  0  0  0  0  0  0  0
    5.2115   -0.5228    2.2897 C   0  0  0  0  0  0  0  0  0  0  0  0
    5.7745   -1.8049    2.2956 C   0  0  0  0  0  0  0  0  0  0  0  0
    5.4473   -2.7716    1.3494 C   0  0  0  0  0  0  0  0  0  0  0  0
    6.0396   -4.0468    1.4172 C   0  0  0  0  0  0  0  0  0  0  0  0
    5.7267   -5.0361    0.4898 C   0  0  0  0  0  0  0  0  0  0  0  0
    4.8153   -4.7593   -0.5152 C   0  0  0  0  0  0  0  0  0  0  0  0
    4.2257   -3.4943   -0.5861 C   0  0  0  0  0  0  0  0  0  0  0  0
    4.5235   -2.4574    0.3408 C   0  0  0  0  0  0  0  0  0  0  0  0
    3.9442   -1.1298    0.3082 C   0  0  0  0  0  0  0  0  0  0  0  0
    2.9729   -0.8670   -0.7966 C   0  0  0  0  0  0  0  0  0  0  0  0
    3.4539   -0.4544   -2.0840 C   0  0  0  0  0  0  0  0  0  0  0  0
    4.8197   -0.2186   -2.3795 C   0  0  0  0  0  0  0  0  0  0  0  0
    5.2454    0.1744   -3.6504 C   0  0  0  0  0  0  0  0  0  0  0  0
    4.3168    0.3467   -4.6660 C   0  0  0  0  0  0  0  0  0  0  0  0
    2.9652    0.1307   -4.4057 C   0  0  0  0  0  0  0  0  0  0  0  0
    2.5250   -0.2653   -3.1306 C   0  0  0  0  0  0  0  0  0  0  0  0
    1.1604   -0.4709   -2.8940 C   0  0  0  0  0  0  0  0  0  0  0  0
    0.6741   -0.8604   -1.6389 C   0  0  0  0  0  0  0  0  0  0  0  0
   -0.7085   -1.0258   -1.4383 C   0  0  0  0  0  0  0  0  0  0  0  0
   -1.2664   -1.3903   -0.1902 C   0  0  0  0  0  0  0  0  0  0  0  0
   -2.6748   -1.5264    0.0517 C   0  0  0  0  0  0  0  0  0  0  0  0
   -3.6442   -1.3381   -1.0690 C   0  0  0  0  0  0  0  0  0  0  0  0
   -4.2645   -0.0395   -1.3385 C   0  0  0  0  0  0  0  0  0  0  0  0
   -5.2090   -0.0459   -2.4021 C   0  0  0  0  0  0  0  0  0  0  0  0
   -5.4928   -1.1983   -3.1455 C   0  0  0  0  0  0  0  0  0  0  0  0
   -4.8834   -2.4237   -2.8927 C   0  0  0  0  0  0  0  0  0  0  0  0
   -5.2124   -3.5462   -3.6765 C   0  0  0  0  0  0  0  0  0  0  0  0
   -4.6259   -4.7860   -3.4403 C   0  0  0  0  0  0  0  0  0  0  0  0
   -3.7045   -4.9156   -2.4148 C   0  0  0  0  0  0  0  0  0  0  0  0
   -3.3761   -3.8036   -1.6344 C   0  0  0  0  0  0  0  0  0  0  0  0
   -3.9514   -2.5206   -1.8481 C   0  0  0  0  0  0  0  0  0  0  0  0
   -5.9126    1.1027   -2.7632 C   0  0  0  0  0  0  0  0  0  0  0  0
   -5.7222    2.3028   -2.1009 C   0  0  0  0  0  0  0  0  0  0  0  0
   -4.8051    2.4000   -1.0638 C   0  0  0  0  0  0  0  0  0  0  0  0
   -4.6582    3.6562   -0.4465 C   0  0  0  0  0  0  0  0  0  0  0  0
   -3.7436    3.8677    0.5879 C   0  0  0  0  0  0  0  0  0  0  0  0
   -3.5915    5.1232    1.2036 C   0  0  0  0  0  0  0  0  0  0  0  0
   -2.6576    5.3074    2.2232 C   0  0  0  0  0  0  0  0  0  0  0  0
   -1.8641    4.2411    2.6332 C   0  0  0  0  0  0  0  0  0  0  0  0
   -2.0135    2.9904    2.0315 C   0  0  0  0  0  0  0  0  0  0  0  0
   -2.9565    2.7893    1.0081 C   0  0  0  0  0  0  0  0  0  0  0  0
   -3.1288    1.5314    0.3899 C   0  0  0  0  0  0  0  0  0  0  0  0
   -4.0507    1.2630   -0.6615 C   0  0  0  0  0  0  0  0  0  0  0  0
   -3.1577   -1.8886    1.3532 C   0  0  0  0  0  0  0  0  0  0  0  0
   -4.5296   -2.0435    1.6743 C   0  0  0  0  0  0  0  0  0  0  0  0
   -4.9546   -2.3919    2.9583 C   0  0  0  0  0  0  0  0  0  0  0  0
   -4.0195   -2.5973    3.9617 C   0  0  0  0  0  0  0  0  0  0  0  0
   -2.6631   -2.4547    3.6784 C   0  0  0  0  0  0  0  0  0  0  0  0
   -2.2239   -2.1041    2.3903 C   0  0  0  0  0  0  0  0  0  0  0  0
   -0.8549   -1.9653    2.1336 C   0  0  0  0  0  0  0  0  0  0  0  0
   -0.3690   -1.6108    0.8687 C   0  0  0  0  0  0  0  0  0  0  0  0
    1.0141   -1.4634    0.6636 C   0  0  0  0  0  0  0  0  0  0  0  0
    1.5701   -1.0739   -0.5771 C   0  0  0  0  0  0  0  0  0  0  0  0
    4.2748   -0.1073    1.3028 C   0  0  0  0  0  0  0  0  0  0  0  0
    1.0224    6.8579    1.2817 H   0  0  0  0  0  0  0  0  0  0  0  0
    0.2202    5.5219   -0.6497 H   0  0  0  0  0  0  0  0  0  0  0  0
    1.0505    3.2295   -1.0003 H   0  0  0  0  0  0  0  0  0  0  0  0
    2.4673    1.4140   -0.3165 H   0  0  0  0  0  0  0  0  0  0  0  0
    4.0797    3.9928    3.5436 H   0  0  0  0  0  0  0  0  0  0  0  0
    2.6561    5.8925    2.8578 H   0  0  0  0  0  0  0  0  0  0  0  0
    5.4573    2.2305    4.2592 H   0  0  0  0  0  0  0  0  0  0  0  0
    6.3374   -0.0037    4.0649 H   0  0  0  0  0  0  0  0  0  0  0  0
    6.4922   -2.0672    3.0738 H   0  0  0  0  0  0  0  0  0  0  0  0
    6.7559   -4.2796    2.2026 H   0  0  0  0  0  0  0  0  0  0  0  0
    6.1924   -6.0153    0.5547 H   0  0  0  0  0  0  0  0  0  0  0  0
    4.5576   -5.5191   -1.2480 H   0  0  0  0  0  0  0  0  0  0  0  0
    3.5160   -3.3267   -1.3944 H   0  0  0  0  0  0  0  0  0  0  0  0
    5.5792   -0.3381   -1.6090 H   0  0  0  0  0  0  0  0  0  0  0  0
    6.3018    0.3466   -3.8381 H   0  0  0  0  0  0  0  0  0  0  0  0
    4.6407    0.6529   -5.6569 H   0  0  0  0  0  0  0  0  0  0  0  0
    2.2506    0.2760   -5.2134 H   0  0  0  0  0  0  0  0  0  0  0  0
    0.4535   -0.3146   -3.7086 H   0  0  0  0  0  0  0  0  0  0  0  0
   -1.3738   -0.8455   -2.2820 H   0  0  0  0  0  0  0  0  0  0  0  0
   -6.2215   -1.1421   -3.9548 H   0  0  0  0  0  0  0  0  0  0  0  0
   -5.9377   -3.4610   -4.4836 H   0  0  0  0  0  0  0  0  0  0  0  0
   -4.8902   -5.6432   -4.0528 H   0  0  0  0  0  0  0  0  0  0  0  0
   -3.2362   -5.8752   -2.2130 H   0  0  0  0  0  0  0  0  0  0  0  0
   -2.6479   -3.9565   -0.8394 H   0  0  0  0  0  0  0  0  0  0  0  0
   -6.6374    1.0818   -3.5759 H   0  0  0  0  0  0  0  0  0  0  0  0
   -6.3021    3.1670   -2.4189 H   0  0  0  0  0  0  0  0  0  0  0  0
   -5.2664    4.4947   -0.7836 H   0  0  0  0  0  0  0  0  0  0  0  0
   -4.1997    5.9674    0.8875 H   0  0  0  0  0  0  0  0  0  0  0  0
   -2.5465    6.2825    2.6891 H   0  0  0  0  0  0  0  0  0  0  0  0
   -1.1197    4.3799    3.4123 H   0  0  0  0  0  0  0  0  0  0  0  0
   -1.3796    2.1697    2.3622 H   0  0  0  0  0  0  0  0  0  0  0  0
   -2.4884    0.7487    0.7687 H   0  0  0  0  0  0  0  0  0  0  0  0
   -5.2951   -1.8867    0.9166 H   0  0  0  0  0  0  0  0  0  0  0  0
   -6.0156   -2.4981    3.1674 H   0  0  0  0  0  0  0  0  0  0  0  0
   -4.3416   -2.8658    4.9638 H   0  0  0  0  0  0  0  0  0  0  0  0
   -1.9441   -2.6186    4.4786 H   0  0  0  0  0  0  0  0  0  0  0  0
   -0.1457   -2.1312    2.9443 H   0  0  0  0  0  0  0  0  0  0  0  0
    1.6782   -1.6388    1.5094 H   0  0  0  0  0  0  0  0  0  0  0  0
  1  2  4  0
  2  3  4  0
  3  4  4  0
  4  5  4  0
  5  6  4  0
  6  7  4  0
  7  8  4  0
  8  9  4  0
  9 10  4  0
  7 11  4  0
 11 12  4  0
 12 13  4  0
 13 14  4  0
 14 15  4  0
 15 16  4  0
 16 17  4  0
 17 18  4  0
 18 19  4  0
 19 20  4  0
 20 21  4  0
 21 22  1  0
 22 23  4  0
 23 24  4  0
 24 25  4  0
 25 26  4  0
 26 27  4  0
 27 28  4  0
 28 29  4  0
 29 30  4  0
 30 31  4  0
 31 32  4  0
 32 33  4  0
 33 34  1  0
 34 35  4  0
 35 36  4  0
 36 37  4  0
 37 38  4  0
 38 39  4  0
 39 40  4  0
 40 41  4  0
 41 42  4  0
 42 43  4  0
 36 44  4  0
 44 45  4  0
 45 46  4  0
 46 47  4  0
 47 48  4  0
 48 49  4  0
 49 50  4  0
 50 51  4  0
 51 52  4  0
 52 53  4  0
 53 54  4  0
 54 55  4  0
 33 56  4  0
 56 57  4  0
 57 58  4  0
 58 59  4  0
 59 60  4  0
 60 61  4  0
 61 62  4  0
 62 63  4  0
 63 64  4  0
 64 65  4  0
 21 66  4  0
 10  1  4  0
 66 13  4  0
  9  4  4  0
 20 15  4  0
 65 22  4  0
 66  6  4  0
 28 23  4  0
 65 30  4  0
 63 32  4  0
 43 34  4  0
 55 46  4  0
 61 56  4  0
 55 35  4  0
 43 38  4  0
 53 48  4  0
  1 67  1  0
  2 68  1  0
  3 69  1  0
  5 70  1  0
  8 71  1  0
 10 72  1  0
 11 73  1  0
 12 74  1  0
 14 75  1  0
 16 76  1  0
 17 77  1  0
 18 78  1  0
 19 79  1  0
 24 80  1  0
 25 81  1  0
 26 82  1  0
 27 83  1  0
 29 84  1  0
 31 85  1  0
 37 86  1  0
 39 87  1  0
 40 88  1  0
 41 89  1  0
 42 90  1  0
 44 91  1  0
 45 92  1  0
 47 93  1  0
 49 94  1  0
 50 95  1  0
 51 96  1  0
 52 97  1  0
 54 98  1  0
 57 99  1  0
 58100  1  0
 59101  1  0
 60102  1  0
 62103  1  0
 64104  1  0
M  END
