
     RDKit          3D

104118  0  0  0  0  0  0  0  0999 V2000
  -10.8024    3.7416   -0.3391 C   0  0  0  0  0  0  0  0  0  0  0  0
  -11.1073    2.6576   -1.1557 C   0  0  0  0  0  0  0  0  0  0  0  0
  -10.1896    1.6159   -1.3005 C   0  0  0  0  0  0  0  0  0  0  0  0
   -8.9539    1.6450   -0.6304 C   0  0  0  0  0  0  0  0  0  0  0  0
   -8.0135    0.6043   -0.7629 C   0  0  0  0  0  0  0  0  0  0  0  0
   -6.7555    0.6006   -0.1008 C   0  0  0  0  0  0  0  0  0  0  0  0
   -6.4830    1.7195    0.7189 C   0  0  0  0  0  0  0  0  0  0  0  0
   -7.4157    2.7625    0.8577 C   0  0  0  0  0  0  0  0  0  0  0  0
   -8.6483    2.7409    0.1937 C   0  0  0  0  0  0  0  0  0  0  0  0
   -9.5800    3.7838    0.3323 C   0  0  0  0  0  0  0  0  0  0  0  0
   -5.2733    1.7960    1.4021 C   0  0  0  0  0  0  0  0  0  0  0  0
   -4.3261    0.7826    1.2864 C   0  0  0  0  0  0  0  0  0  0  0  0
   -4.5378   -0.3579    0.4859 C   0  0  0  0  0  0  0  0  0  0  0  0
   -3.5541   -1.3987    0.3721 C   0  0  0  0  0  0  0  0  0  0  0  0
   -2.2601   -1.2907    1.1175 C   0  0  0  0  0  0  0  0  0  0  0  0
   -2.1531   -1.8374    2.4376 C   0  0  0  0  0  0  0  0  0  0  0  0
   -3.2146   -2.4923    3.1116 C   0  0  0  0  0  0  0  0  0  0  0  0
   -3.0653   -3.0111    4.3997 C   0  0  0  0  0  0  0  0  0  0  0  0
   -1.8484   -2.8910    5.0543 C   0  0  0  0  0  0  0  0  0  0  0  0
   -0.7854   -2.2526    4.4196 C   0  0  0  0  0  0  0  0  0  0  0  0
   -0.9240   -1.7258    3.1238 C   0  0  0  0  0  0  0  0  0  0  0  0
    0.1596   -1.0867    2.5099 C   0  0  0  0  0  0  0  0  0  0  0  0
    0.0685   -0.5455    1.2212 C   0  0  0  0  0  0  0  0  0  0  0  0
    1.1828    0.0918    0.6447 C   0  0  0  0  0  0  0  0  0  0  0  0
    1.1629    0.6578   -0.6522 C   0  0  0  0  0  0  0  0  0  0  0  0
    2.2866    1.3091   -1.2607 C   0  0  0  0  0  0  0  0  0  0  0  0
    3.5763    1.4203   -0.5080 C   0  0  0  0  0  0  0  0  0  0  0  0
    4.5537    0.3710   -0.5967 C   0  0  0  0  0  0  0  0  0  0  0  0
    4.3460   -0.7746   -1.3906 C   0  0  0  0  0  0  0  0  0  0  0  0
    5.2813   -1.8022   -1.4727 C   0  0  0  0  0  0  0  0  0  0  0  0
    6.4760   -1.7346   -0.7625 C   0  0  0  0  0  0  0  0  0  0  0  0
    7.3943   -2.7948   -0.8632 C   0  0  0  0  0  0  0  0  0  0  0  0
    8.6100   -2.7842   -0.1685 C   0  0  0  0  0  0  0  0  0  0  0  0
    9.5251   -3.8466   -0.2656 C   0  0  0  0  0  0  0  0  0  0  0  0
   10.7300   -3.8167    0.4374 C   0  0  0  0  0  0  0  0  0  0  0  0
   11.0342   -2.7250    1.2439 C   0  0  0  0  0  0  0  0  0  0  0  0
   10.1333   -1.6636    1.3471 C   0  0  0  0  0  0  0  0  0  0  0  0
    8.9149   -1.6804    0.6453 C   0  0  0  0  0  0  0  0  0  0  0  0
    7.9902   -0.6212    0.7375 C   0  0  0  0  0  0  0  0  0  0  0  0
    6.7472   -0.6079    0.0471 C   0  0  0  0  0  0  0  0  0  0  0  0
    5.7711    0.4587    0.1270 C   0  0  0  0  0  0  0  0  0  0  0  0
    5.9638    1.6193    0.9123 C   0  0  0  0  0  0  0  0  0  0  0  0
    5.0252    2.6582    1.0117 C   0  0  0  0  0  0  0  0  0  0  0  0
    5.2946    3.7791    1.8183 C   0  0  0  0  0  0  0  0  0  0  0  0
    4.3772    4.8208    1.9369 C   0  0  0  0  0  0  0  0  0  0  0  0
    3.1752    4.7551    1.2495 C   0  0  0  0  0  0  0  0  0  0  0  0
    2.8979    3.6474    0.4460 C   0  0  0  0  0  0  0  0  0  0  0  0
    3.8131    2.5726    0.3037 C   0  0  0  0  0  0  0  0  0  0  0  0
    2.1822    1.8557   -2.5807 C   0  0  0  0  0  0  0  0  0  0  0  0
    3.2447    2.5125   -3.2513 C   0  0  0  0  0  0  0  0  0  0  0  0
    3.0975    3.0337   -4.5387 C   0  0  0  0  0  0  0  0  0  0  0  0
    1.8824    2.9129   -5.1962 C   0  0  0  0  0  0  0  0  0  0  0  0
    0.8186    2.2716   -4.5650 C   0  0  0  0  0  0  0  0  0  0  0  0
    0.9545    1.7434   -3.2694 C   0  0  0  0  0  0  0  0  0  0  0  0
   -0.1303    1.1033   -2.6574 C   0  0  0  0  0  0  0  0  0  0  0  0
   -0.0424    0.5623   -1.3682 C   0  0  0  0  0  0  0  0  0  0  0  0
   -1.1575   -0.0744   -0.7911 C   0  0  0  0  0  0  0  0  0  0  0  0
   -1.1374   -0.6404    0.5062 C   0  0  0  0  0  0  0  0  0  0  0  0
   -3.7955   -2.5455   -0.4458 C   0  0  0  0  0  0  0  0  0  0  0  0
   -2.8759   -3.6128   -0.6103 C   0  0  0  0  0  0  0  0  0  0  0  0
   -3.1586   -4.7160   -1.4181 C   0  0  0  0  0  0  0  0  0  0  0  0
   -4.3709   -4.7856   -2.0870 C   0  0  0  0  0  0  0  0  0  0  0  0
   -5.2935   -3.7514   -1.9458 C   0  0  0  0  0  0  0  0  0  0  0  0
   -5.0183   -2.6349   -1.1349 C   0  0  0  0  0  0  0  0  0  0  0  0
   -5.9636   -1.6054   -1.0092 C   0  0  0  0  0  0  0  0  0  0  0  0
   -5.7678   -0.4515   -0.2149 C   0  0  0  0  0  0  0  0  0  0  0  0
  -11.5146    4.5544   -0.2235 H   0  0  0  0  0  0  0  0  0  0  0  0
  -12.0586    2.6211   -1.6801 H   0  0  0  0  0  0  0  0  0  0  0  0
  -10.4473    0.7769   -1.9430 H   0  0  0  0  0  0  0  0  0  0  0  0
   -8.2870   -0.2249   -1.4091 H   0  0  0  0  0  0  0  0  0  0  0  0
   -7.1766    3.6100    1.4983 H   0  0  0  0  0  0  0  0  0  0  0  0
   -9.3579    4.6388    0.9669 H   0  0  0  0  0  0  0  0  0  0  0  0
   -5.0448    2.6488    2.0383 H   0  0  0  0  0  0  0  0  0  0  0  0
   -3.4002    0.9076    1.8461 H   0  0  0  0  0  0  0  0  0  0  0  0
   -4.1858   -2.6073    2.6329 H   0  0  0  0  0  0  0  0  0  0  0  0
   -3.9020   -3.5068    4.8849 H   0  0  0  0  0  0  0  0  0  0  0  0
   -1.7241   -3.2920    6.0564 H   0  0  0  0  0  0  0  0  0  0  0  0
    0.1619   -2.1670    4.9484 H   0  0  0  0  0  0  0  0  0  0  0  0
    1.1027   -1.0075    3.0505 H   0  0  0  0  0  0  0  0  0  0  0  0
    2.0994    0.1466    1.2316 H   0  0  0  0  0  0  0  0  0  0  0  0
    3.4325   -0.8930   -1.9714 H   0  0  0  0  0  0  0  0  0  0  0  0
    5.0540   -2.6598   -2.1029 H   0  0  0  0  0  0  0  0  0  0  0  0
    7.1553   -3.6494   -1.4946 H   0  0  0  0  0  0  0  0  0  0  0  0
    9.3028   -4.7077   -0.8917 H   0  0  0  0  0  0  0  0  0  0  0  0
   11.4289   -4.6449    0.3545 H   0  0  0  0  0  0  0  0  0  0  0  0
   11.9719   -2.6980    1.7930 H   0  0  0  0  0  0  0  0  0  0  0  0
   10.3899   -0.8194    1.9833 H   0  0  0  0  0  0  0  0  0  0  0  0
    8.2625    0.2142    1.3762 H   0  0  0  0  0  0  0  0  0  0  0  0
    6.8826    1.7346    1.4817 H   0  0  0  0  0  0  0  0  0  0  0  0
    6.2323    3.8502    2.3663 H   0  0  0  0  0  0  0  0  0  0  0  0
    4.6032    5.6786    2.5643 H   0  0  0  0  0  0  0  0  0  0  0  0
    2.4511    5.5611    1.3326 H   0  0  0  0  0  0  0  0  0  0  0  0
    1.9434    3.6330   -0.0776 H   0  0  0  0  0  0  0  0  0  0  0  0
    4.2140    2.6273   -2.7694 H   0  0  0  0  0  0  0  0  0  0  0  0
    3.9346    3.5316   -5.0209 H   0  0  0  0  0  0  0  0  0  0  0  0
    1.7596    3.3153   -6.1980 H   0  0  0  0  0  0  0  0  0  0  0  0
   -0.1272    2.1864   -5.0968 H   0  0  0  0  0  0  0  0  0  0  0  0
   -1.0722    1.0239   -3.1999 H   0  0  0  0  0  0  0  0  0  0  0  0
   -2.0747   -0.1289   -1.3773 H   0  0  0  0  0  0  0  0  0  0  0  0
   -1.9141   -3.5964   -0.1006 H   0  0  0  0  0  0  0  0  0  0  0  0
   -2.4300   -5.5160   -1.5186 H   0  0  0  0  0  0  0  0  0  0  0  0
   -4.6009   -5.6404   -2.7168 H   0  0  0  0  0  0  0  0  0  0  0  0
   -6.2396   -3.8249   -2.4787 H   0  0  0  0  0  0  0  0  0  0  0  0
   -6.8920   -1.7243   -1.5621 H   0  0  0  0  0  0  0  0  0  0  0  0
  1  2  4  0
  2  3  4  0
  3  4  4  0
  4  5  4  0
  5  6  4  0
  6  7  4  0
  7  8  4  0
  8  9  4  0
  9 10  4  0
  7 11  4  0
 11 12  4  0
 12 13  4  0
 13 14  4  0
 14 15  1  0
 15 16  4  0
 16 17  4  0
 17 18  4  0
 18 19  4  0
 19 20  4  0
 20 21  4  0
 21 22  4  0
 22 23  4  0
 23 24  4  0
 24 25  4  0
 25 26  4  0
 26 27  1  0
 27 28  4  0
 28 29  4  0
 29 30  4  0
 30 31  4  0
 31 32  4  0
 32 33  4  0
 33 34  4  0
 34 35  4  0
 35 36  4  0
 36 37  4  0
 37 38  4  0
 38 39  4  0
 39 40  4  0
 40 41  4  0
 41 42  4  0
 42 43  4  0
 43 44  4  0
 44 45  4  0
 45 46  4  0
 46 47  4  0
 47 48  4  0
 26 49  4  0
 49 50  4  0
 50 51  4  0
 51 52  4  0
 52 53  4  0
 53 54  4  0
 54 55  4  0
 55 56  4  0
 56 57  4  0
 57 58  4  0
 14 59  4  0
 59 60  4  0
 60 61  4  0
 61 62  4  0
 62 63  4  0
 63 64  4  0
 64 65  4  0
 65 66  4  0
 10  1  4  0
 66 13  4  0
  9  4  4  0
 58 15  4  0
 64 59  4  0
 66  6  4  0
 21 16  4  0
 58 23  4  0
 56 25  4  0
 48 27  4  0
 54 49  4  0
 41 28  4  0
 48 43  4  0
 40 31  4  0
 38 33  4  0
  1 67  1  0
  2 68  1  0
  3 69  1  0
  5 70  1  0
  8 71  1  0
 10 72  1  0
 11 73  1  0
 12 74  1  0
 17 75  1  0
 18 76  1  0
 19 77  1  0
 20 78  1  0
 22 79  1  0
 24 80  1  0
 29 81  1  0
 30 82  1  0
 32 83  1  0
 34 84  1  0
 35 85  1  0
 36 86  1  0
 37 87  1  0
 39 88  1  0
 42 89  1  0
 44 90  1  0
 45 91  1  0
 46 92  1  0
 47 93  1  0
 50 94  1  0
 51 95  1  0
 52 96  1  0
 53 97  1  0
 55 98  1  0
 57 99  1  0
 60100  1  0
 61101  1  0
 62102  1  0
 63103  1  0
 65104  1  0
M  END
