
     RDKit          3D

 96110  0  0  0  0  0  0  0  0999 V2000
   -8.4058   -4.9379    0.8348 C   0  0  0  0  0  0  0  0  0  0  0  0
   -7.1307   -5.2010    0.3609 C   0  0  0  0  0  0  0  0  0  0  0  0
   -6.3105   -4.1468   -0.0522 C   0  0  0  0  0  0  0  0  0  0  0  0
   -6.7330   -2.7924   -0.0072 C   0  0  0  0  0  0  0  0  0  0  0  0
   -8.0406   -2.5546    0.4800 C   0  0  0  0  0  0  0  0  0  0  0  0
   -8.8568   -3.6224    0.8930 C   0  0  0  0  0  0  0  0  0  0  0  0
   -8.5308   -1.2477    0.5532 C   0  0  0  0  0  0  0  0  0  0  0  0
   -7.7578   -0.1536    0.1554 C   0  0  0  0  0  0  0  0  0  0  0  0
   -8.2811    1.1414    0.2418 C   0  0  0  0  0  0  0  0  0  0  0  0
   -7.5249    2.2432   -0.1491 C   0  0  0  0  0  0  0  0  0  0  0  0
   -6.2262    2.0760   -0.6359 C   0  0  0  0  0  0  0  0  0  0  0  0
   -5.6728    0.7743   -0.7342 C   0  0  0  0  0  0  0  0  0  0  0  0
   -6.4476   -0.3563   -0.3339 C   0  0  0  0  0  0  0  0  0  0  0  0
   -5.9255   -1.6734   -0.4194 C   0  0  0  0  0  0  0  0  0  0  0  0
   -4.6125   -1.8015   -0.9164 C   0  0  0  0  0  0  0  0  0  0  0  0
   -3.8508   -0.6965   -1.3078 C   0  0  0  0  0  0  0  0  0  0  0  0
   -4.3554    0.6111   -1.2285 C   0  0  0  0  0  0  0  0  0  0  0  0
   -3.6031    1.7558   -1.6190 C   0  0  0  0  0  0  0  0  0  0  0  0
   -2.2133    1.6614   -2.1392 C   0  0  0  0  0  0  0  0  0  0  0  0
   -1.9874    1.5280   -3.5468 C   0  0  0  0  0  0  0  0  0  0  0  0
   -3.0244    1.4588   -4.5108 C   0  0  0  0  0  0  0  0  0  0  0  0
   -2.7597    1.3249   -5.8757 C   0  0  0  0  0  0  0  0  0  0  0  0
   -1.4475    1.2569   -6.3192 C   0  0  0  0  0  0  0  0  0  0  0  0
   -0.4048    1.3217   -5.3974 C   0  0  0  0  0  0  0  0  0  0  0  0
   -0.6592    1.4551   -4.0212 C   0  0  0  0  0  0  0  0  0  0  0  0
    0.4065    1.5151   -3.1155 C   0  0  0  0  0  0  0  0  0  0  0  0
    0.2004    1.6416   -1.7357 C   0  0  0  0  0  0  0  0  0  0  0  0
    1.3007    1.6947   -0.8596 C   0  0  0  0  0  0  0  0  0  0  0  0
    1.1648    1.8153    0.5445 C   0  0  0  0  0  0  0  0  0  0  0  0
    2.2697    1.8711    1.4558 C   0  0  0  0  0  0  0  0  0  0  0  0
    3.6602    1.8283    0.9315 C   0  0  0  0  0  0  0  0  0  0  0  0
    4.3751    0.6098    0.7516 C   0  0  0  0  0  0  0  0  0  0  0  0
    3.8299   -0.6465    1.0595 C   0  0  0  0  0  0  0  0  0  0  0  0
    4.5552   -1.8267    0.8718 C   0  0  0  0  0  0  0  0  0  0  0  0
    5.8702   -1.8298    0.3644 C   0  0  0  0  0  0  0  0  0  0  0  0
    6.4332   -0.5657    0.0481 C   0  0  0  0  0  0  0  0  0  0  0  0
    7.7475   -0.4940   -0.4661 C   0  0  0  0  0  0  0  0  0  0  0  0
    8.4849   -1.6651   -0.6601 C   0  0  0  0  0  0  0  0  0  0  0  0
    7.9547   -2.9222   -0.3562 C   0  0  0  0  0  0  0  0  0  0  0  0
    8.7366   -4.0714   -0.5681 C   0  0  0  0  0  0  0  0  0  0  0  0
    8.2451   -5.3408   -0.2777 C   0  0  0  0  0  0  0  0  0  0  0  0
    6.9627   -5.4754    0.2292 C   0  0  0  0  0  0  0  0  0  0  0  0
    6.1762   -4.3395    0.4439 C   0  0  0  0  0  0  0  0  0  0  0  0
    6.6411   -3.0287    0.1604 C   0  0  0  0  0  0  0  0  0  0  0  0
    8.3103    0.7481   -0.7808 C   0  0  0  0  0  0  0  0  0  0  0  0
    7.5898    1.9248   -0.5929 C   0  0  0  0  0  0  0  0  0  0  0  0
    6.2886    1.8874   -0.0863 C   0  0  0  0  0  0  0  0  0  0  0  0
    5.6953    0.6417    0.2396 C   0  0  0  0  0  0  0  0  0  0  0  0
    5.5741    3.0745    0.0981 C   0  0  0  0  0  0  0  0  0  0  0  0
    4.2771    3.0454    0.5995 C   0  0  0  0  0  0  0  0  0  0  0  0
    2.0430    1.9790    2.8655 C   0  0  0  0  0  0  0  0  0  0  0  0
    3.0794    2.0302    3.8313 C   0  0  0  0  0  0  0  0  0  0  0  0
    2.8131    2.1334    5.1986 C   0  0  0  0  0  0  0  0  0  0  0  0
    1.5005    2.1888    5.6430 C   0  0  0  0  0  0  0  0  0  0  0  0
    0.4587    2.1397    4.7194 C   0  0  0  0  0  0  0  0  0  0  0  0
    0.7143    2.0351    3.3409 C   0  0  0  0  0  0  0  0  0  0  0  0
   -0.3509    1.9860    2.4339 C   0  0  0  0  0  0  0  0  0  0  0  0
   -0.1439    1.8780    1.0527 C   0  0  0  0  0  0  0  0  0  0  0  0
   -1.2439    1.8308    0.1761 C   0  0  0  0  0  0  0  0  0  0  0  0
   -1.1081    1.7139   -1.2282 C   0  0  0  0  0  0  0  0  0  0  0  0
   -4.1809    3.0311   -1.5093 C   0  0  0  0  0  0  0  0  0  0  0  0
   -5.4751    3.1887   -1.0247 C   0  0  0  0  0  0  0  0  0  0  0  0
   -9.0498   -5.7511    1.1578 H   0  0  0  0  0  0  0  0  0  0  0  0
   -6.7676   -6.2242    0.3093 H   0  0  0  0  0  0  0  0  0  0  0  0
   -5.3213   -4.4097   -0.4161 H   0  0  0  0  0  0  0  0  0  0  0  0
   -9.8617   -3.4352    1.2670 H   0  0  0  0  0  0  0  0  0  0  0  0
   -9.5391   -1.0779    0.9282 H   0  0  0  0  0  0  0  0  0  0  0  0
   -9.2890    1.3072    0.6163 H   0  0  0  0  0  0  0  0  0  0  0  0
   -7.9639    3.2353   -0.0682 H   0  0  0  0  0  0  0  0  0  0  0  0
   -4.1418   -2.7756   -1.0139 H   0  0  0  0  0  0  0  0  0  0  0  0
   -2.8446   -0.8821   -1.6801 H   0  0  0  0  0  0  0  0  0  0  0  0
   -4.0676    1.5043   -4.2029 H   0  0  0  0  0  0  0  0  0  0  0  0
   -3.5818    1.2720   -6.5845 H   0  0  0  0  0  0  0  0  0  0  0  0
   -1.2327    1.1521   -7.3790 H   0  0  0  0  0  0  0  0  0  0  0  0
    0.6183    1.2647   -5.7642 H   0  0  0  0  0  0  0  0  0  0  0  0
    1.4266    1.4587   -3.4947 H   0  0  0  0  0  0  0  0  0  0  0  0
    2.2997    1.6345   -1.2910 H   0  0  0  0  0  0  0  0  0  0  0  0
    2.8198   -0.7320    1.4566 H   0  0  0  0  0  0  0  0  0  0  0  0
    4.0528   -2.7524    1.1372 H   0  0  0  0  0  0  0  0  0  0  0  0
    9.4968   -1.5963   -1.0569 H   0  0  0  0  0  0  0  0  0  0  0  0
    9.7462   -3.9848   -0.9652 H   0  0  0  0  0  0  0  0  0  0  0  0
    8.8631   -6.2182   -0.4469 H   0  0  0  0  0  0  0  0  0  0  0  0
    6.5670   -6.4609    0.4604 H   0  0  0  0  0  0  0  0  0  0  0  0
    5.1796   -4.5033    0.8439 H   0  0  0  0  0  0  0  0  0  0  0  0
    9.3214    0.8133   -1.1772 H   0  0  0  0  0  0  0  0  0  0  0  0
    8.0587    2.8728   -0.8474 H   0  0  0  0  0  0  0  0  0  0  0  0
    6.0198    4.0358   -0.1480 H   0  0  0  0  0  0  0  0  0  0  0  0
    3.7378    3.9818    0.7324 H   0  0  0  0  0  0  0  0  0  0  0  0
    4.1230    1.9851    3.5244 H   0  0  0  0  0  0  0  0  0  0  0  0
    3.6341    2.1683    5.9097 H   0  0  0  0  0  0  0  0  0  0  0  0
    1.2848    2.2685    6.7049 H   0  0  0  0  0  0  0  0  0  0  0  0
   -0.5647    2.1835    5.0870 H   0  0  0  0  0  0  0  0  0  0  0  0
   -1.3716    2.0294    2.8135 H   0  0  0  0  0  0  0  0  0  0  0  0
   -2.2429    1.8815    0.6084 H   0  0  0  0  0  0  0  0  0  0  0  0
   -3.6138    3.9120   -1.8055 H   0  0  0  0  0  0  0  0  0  0  0  0
   -5.8897    4.1918   -0.9538 H   0  0  0  0  0  0  0  0  0  0  0  0
  1  2  4  0
  2  3  4  0
  3  4  4  0
  4  5  4  0
  5  6  4  0
  5  7  4  0
  7  8  4  0
  8  9  4  0
  9 10  4  0
 10 11  4  0
 11 12  4  0
 12 13  4  0
 13 14  4  0
 14 15  4  0
 15 16  4  0
 16 17  4  0
 17 18  4  0
 18 19  1  0
 19 20  4  0
 20 21  4  0
 21 22  4  0
 22 23  4  0
 23 24  4  0
 24 25  4  0
 25 26  4  0
 26 27  4  0
 27 28  4  0
 28 29  4  0
 29 30  4  0
 30 31  1  0
 31 32  4  0
 32 33  4  0
 33 34  4  0
 34 35  4  0
 35 36  4  0
 36 37  4  0
 37 38  4  0
 38 39  4  0
 39 40  4  0
 40 41  4  0
 41 42  4  0
 42 43  4  0
 43 44  4  0
 37 45  4  0
 45 46  4  0
 46 47  4  0
 47 48  4  0
 47 49  4  0
 49 50  4  0
 30 51  4  0
 51 52  4  0
 52 53  4  0
 53 54  4  0
 54 55  4  0
 55 56  4  0
 56 57  4  0
 57 58  4  0
 58 59  4  0
 59 60  4  0
 18 61  4  0
 61 62  4  0
  6  1  4  0
 13  8  4  0
 60 19  4  0
 14  4  4  0
 25 20  4  0
 60 27  4  0
 62 11  4  0
 17 12  4  0
 58 29  4  0
 50 31  4  0
 56 51  4  0
 48 32  4  0
 44 35  4  0
 48 36  4  0
 44 39  4  0
  1 63  1  0
  2 64  1  0
  3 65  1  0
  6 66  1  0
  7 67  1  0
  9 68  1  0
 10 69  1  0
 15 70  1  0
 16 71  1  0
 21 72  1  0
 22 73  1  0
 23 74  1  0
 24 75  1  0
 26 76  1  0
 28 77  1  0
 33 78  1  0
 34 79  1  0
 38 80  1  0
 40 81  1  0
 41 82  1  0
 42 83  1  0
 43 84  1  0
 45 85  1  0
 46 86  1  0
 49 87  1  0
 50 88  1  0
 52 89  1  0
 53 90  1  0
 54 91  1  0
 55 92  1  0
 57 93  1  0
 59 94  1  0
 61 95  1  0
 62 96  1  0
M  END
