
     RDKit          3D

 96110  0  0  0  0  0  0  0  0999 V2000
  -12.2616   -1.6030    0.6426 C   0  0  0  0  0  0  0  0  0  0  0  0
  -11.5692   -1.2344    1.7937 C   0  0  0  0  0  0  0  0  0  0  0  0
  -10.2450   -0.7787    1.7155 C   0  0  0  0  0  0  0  0  0  0  0  0
   -9.6047   -0.6929    0.4553 C   0  0  0  0  0  0  0  0  0  0  0  0
  -10.3137   -1.0689   -0.7059 C   0  0  0  0  0  0  0  0  0  0  0  0
  -11.6377   -1.5208   -0.6001 C   0  0  0  0  0  0  0  0  0  0  0  0
   -9.6784   -0.9822   -1.9440 C   0  0  0  0  0  0  0  0  0  0  0  0
   -8.3583   -0.5310   -2.0365 C   0  0  0  0  0  0  0  0  0  0  0  0
   -7.6079   -0.1443   -0.9011 C   0  0  0  0  0  0  0  0  0  0  0  0
   -8.2610   -0.2330    0.3571 C   0  0  0  0  0  0  0  0  0  0  0  0
   -7.5805    0.1367    1.5374 C   0  0  0  0  0  0  0  0  0  0  0  0
   -6.2615    0.5921    1.4609 C   0  0  0  0  0  0  0  0  0  0  0  0
   -5.5903    0.6893    0.2379 C   0  0  0  0  0  0  0  0  0  0  0  0
   -4.2616    1.1512    0.2156 C   0  0  0  0  0  0  0  0  0  0  0  0
   -3.5398    1.2607   -0.9796 C   0  0  0  0  0  0  0  0  0  0  0  0
   -2.1402    1.7385   -0.9810 C   0  0  0  0  0  0  0  0  0  0  0  0
   -1.8629    3.1306   -1.1685 C   0  0  0  0  0  0  0  0  0  0  0  0
   -2.8627    4.1191   -1.3515 C   0  0  0  0  0  0  0  0  0  0  0  0
   -2.5468    5.4677   -1.5324 C   0  0  0  0  0  0  0  0  0  0  0  0
   -1.2197    5.8707   -1.5355 C   0  0  0  0  0  0  0  0  0  0  0  0
   -0.2129    4.9248   -1.3567 C   0  0  0  0  0  0  0  0  0  0  0  0
   -0.5187    3.5649   -1.1732 C   0  0  0  0  0  0  0  0  0  0  0  0
    0.5125    2.6359   -0.9934 C   0  0  0  0  0  0  0  0  0  0  0  0
    0.2565    1.2719   -0.8047 C   0  0  0  0  0  0  0  0  0  0  0  0
    1.3244    0.3728   -0.6238 C   0  0  0  0  0  0  0  0  0  0  0  0
    1.1391   -1.0163   -0.4218 C   0  0  0  0  0  0  0  0  0  0  0  0
    2.2102   -1.9489   -0.2287 C   0  0  0  0  0  0  0  0  0  0  0  0
    3.6093   -1.4706   -0.2358 C   0  0  0  0  0  0  0  0  0  0  0  0
    4.3567   -1.4555   -1.4130 C   0  0  0  0  0  0  0  0  0  0  0  0
    5.6770   -0.9916   -1.4104 C   0  0  0  0  0  0  0  0  0  0  0  0
    6.3118   -0.5192   -0.2344 C   0  0  0  0  0  0  0  0  0  0  0  0
    5.5415   -0.5418    0.9532 C   0  0  0  0  0  0  0  0  0  0  0  0
    4.2166   -1.0132    0.9402 C   0  0  0  0  0  0  0  0  0  0  0  0
    6.0950   -0.0904    2.1552 C   0  0  0  0  0  0  0  0  0  0  0  0
    7.4044    0.3923    2.2212 C   0  0  0  0  0  0  0  0  0  0  0  0
    7.9326    0.8427    3.4387 C   0  0  0  0  0  0  0  0  0  0  0  0
    9.2376    1.3264    3.5173 C   0  0  0  0  0  0  0  0  0  0  0  0
   10.0469    1.3712    2.3785 C   0  0  0  0  0  0  0  0  0  0  0  0
    9.5278    0.9203    1.1405 C   0  0  0  0  0  0  0  0  0  0  0  0
   10.3460    0.9666   -0.0087 C   0  0  0  0  0  0  0  0  0  0  0  0
   11.6574    1.4559    0.0867 C   0  0  0  0  0  0  0  0  0  0  0  0
   12.1620    1.8976    1.3076 C   0  0  0  0  0  0  0  0  0  0  0  0
   11.3613    1.8556    2.4468 C   0  0  0  0  0  0  0  0  0  0  0  0
    9.8295    0.5215   -1.2250 C   0  0  0  0  0  0  0  0  0  0  0  0
    8.5204    0.0369   -1.3077 C   0  0  0  0  0  0  0  0  0  0  0  0
    7.6639   -0.0281   -0.1836 C   0  0  0  0  0  0  0  0  0  0  0  0
    8.1961    0.4256    1.0527 C   0  0  0  0  0  0  0  0  0  0  0  0
    1.9333   -3.3383   -0.0241 C   0  0  0  0  0  0  0  0  0  0  0  0
    2.9334   -4.3221    0.1825 C   0  0  0  0  0  0  0  0  0  0  0  0
    2.6186   -5.6687    0.3794 C   0  0  0  0  0  0  0  0  0  0  0  0
    1.2921   -6.0735    0.3771 C   0  0  0  0  0  0  0  0  0  0  0  0
    0.2851   -5.1317    0.1780 C   0  0  0  0  0  0  0  0  0  0  0  0
    0.5896   -3.7738   -0.0212 C   0  0  0  0  0  0  0  0  0  0  0  0
   -0.4418   -2.8473   -0.2151 C   0  0  0  0  0  0  0  0  0  0  0  0
   -0.1862   -1.4844   -0.4126 C   0  0  0  0  0  0  0  0  0  0  0  0
   -1.2539   -0.5859   -0.5990 C   0  0  0  0  0  0  0  0  0  0  0  0
   -1.0691    0.8042   -0.7956 C   0  0  0  0  0  0  0  0  0  0  0  0
   -4.1747    0.9012   -2.1681 C   0  0  0  0  0  0  0  0  0  0  0  0
   -5.4974    0.4448   -2.1576 C   0  0  0  0  0  0  0  0  0  0  0  0
   -6.2475    0.3225   -0.9612 C   0  0  0  0  0  0  0  0  0  0  0  0
   -8.2282    0.0459    2.7771 C   0  0  0  0  0  0  0  0  0  0  0  0
   -9.5442   -0.4062    2.8660 C   0  0  0  0  0  0  0  0  0  0  0  0
  -13.2875   -1.9545    0.7140 H   0  0  0  0  0  0  0  0  0  0  0  0
  -12.0727   -1.3054    2.7554 H   0  0  0  0  0  0  0  0  0  0  0  0
  -12.1946   -1.8127   -1.4879 H   0  0  0  0  0  0  0  0  0  0  0  0
  -10.2015   -1.2645   -2.8551 H   0  0  0  0  0  0  0  0  0  0  0  0
   -7.9259   -0.4878   -3.0321 H   0  0  0  0  0  0  0  0  0  0  0  0
   -5.7450    0.8764    2.3768 H   0  0  0  0  0  0  0  0  0  0  0  0
   -3.7698    1.4307    1.1470 H   0  0  0  0  0  0  0  0  0  0  0  0
   -3.9160    3.8440   -1.3543 H   0  0  0  0  0  0  0  0  0  0  0  0
   -3.3411    6.1966   -1.6701 H   0  0  0  0  0  0  0  0  0  0  0  0
   -0.9661    6.9179   -1.6762 H   0  0  0  0  0  0  0  0  0  0  0  0
    0.8228    5.2594   -1.3616 H   0  0  0  0  0  0  0  0  0  0  0  0
    1.5451    2.9846   -0.9984 H   0  0  0  0  0  0  0  0  0  0  0  0
    2.3375    0.7744   -0.6389 H   0  0  0  0  0  0  0  0  0  0  0  0
    3.9155   -1.8051   -2.3445 H   0  0  0  0  0  0  0  0  0  0  0  0
    6.2024   -1.0072   -2.3610 H   0  0  0  0  0  0  0  0  0  0  0  0
    3.6361   -1.0241    1.8625 H   0  0  0  0  0  0  0  0  0  0  0  0
    5.4913   -0.1133    3.0616 H   0  0  0  0  0  0  0  0  0  0  0  0
    7.3285    0.8213    4.3436 H   0  0  0  0  0  0  0  0  0  0  0  0
    9.6153    1.6677    4.4784 H   0  0  0  0  0  0  0  0  0  0  0  0
   12.2968    1.4965   -0.7923 H   0  0  0  0  0  0  0  0  0  0  0  0
   13.1792    2.2749    1.3713 H   0  0  0  0  0  0  0  0  0  0  0  0
   11.7723    2.2049    3.3914 H   0  0  0  0  0  0  0  0  0  0  0  0
   10.4384    0.5453   -2.1262 H   0  0  0  0  0  0  0  0  0  0  0  0
    8.1833   -0.2928   -2.2863 H   0  0  0  0  0  0  0  0  0  0  0  0
    3.9861   -4.0441    0.1950 H   0  0  0  0  0  0  0  0  0  0  0  0
    3.4125   -6.3944    0.5357 H   0  0  0  0  0  0  0  0  0  0  0  0
    1.0386   -7.1187    0.5315 H   0  0  0  0  0  0  0  0  0  0  0  0
   -0.7500   -5.4679    0.1815 H   0  0  0  0  0  0  0  0  0  0  0  0
   -1.4743   -3.1962   -0.2089 H   0  0  0  0  0  0  0  0  0  0  0  0
   -2.2668   -0.9880   -0.5871 H   0  0  0  0  0  0  0  0  0  0  0  0
   -3.6426    0.9739   -3.1148 H   0  0  0  0  0  0  0  0  0  0  0  0
   -5.9309    0.1824   -3.1184 H   0  0  0  0  0  0  0  0  0  0  0  0
   -7.7110    0.3285    3.6918 H   0  0  0  0  0  0  0  0  0  0  0  0
  -10.0161   -0.4637    3.8444 H   0  0  0  0  0  0  0  0  0  0  0  0
  1  2  4  0
  2  3  4  0
  3  4  4  0
  4  5  4  0
  5  6  4  0
  5  7  4  0
  7  8  4  0
  8  9  4  0
  9 10  4  0
 10 11  4  0
 11 12  4  0
 12 13  4  0
 13 14  4  0
 14 15  4  0
 15 16  1  0
 16 17  4  0
 17 18  4  0
 18 19  4  0
 19 20  4  0
 20 21  4  0
 21 22  4  0
 22 23  4  0
 23 24  4  0
 24 25  4  0
 25 26  4  0
 26 27  4  0
 27 28  1  0
 28 29  4  0
 29 30  4  0
 30 31  4  0
 31 32  4  0
 32 33  4  0
 32 34  4  0
 34 35  4  0
 35 36  4  0
 36 37  4  0
 37 38  4  0
 38 39  4  0
 39 40  4  0
 40 41  4  0
 41 42  4  0
 42 43  4  0
 40 44  4  0
 44 45  4  0
 45 46  4  0
 46 47  4  0
 27 48  4  0
 48 49  4  0
 49 50  4  0
 50 51  4  0
 51 52  4  0
 52 53  4  0
 53 54  4  0
 54 55  4  0
 55 56  4  0
 56 57  4  0
 15 58  4  0
 58 59  4  0
 59 60  4  0
 11 61  4  0
 61 62  4  0
  6  1  4  0
 60  9  4  0
 62  3  4  0
 10  4  4  0
 60 13  4  0
 57 16  4  0
 22 17  4  0
 57 24  4  0
 55 26  4  0
 33 28  4  0
 47 35  4  0
 53 48  4  0
 46 31  4  0
 43 38  4  0
 47 39  4  0
  1 63  1  0
  2 64  1  0
  6 65  1  0
  7 66  1  0
  8 67  1  0
 12 68  1  0
 14 69  1  0
 18 70  1  0
 19 71  1  0
 20 72  1  0
 21 73  1  0
 23 74  1  0
 25 75  1  0
 29 76  1  0
 30 77  1  0
 33 78  1  0
 34 79  1  0
 36 80  1  0
 37 81  1  0
 41 82  1  0
 42 83  1  0
 43 84  1  0
 44 85  1  0
 45 86  1  0
 49 87  1  0
 50 88  1  0
 51 89  1  0
 52 90  1  0
 54 91  1  0
 56 92  1  0
 58 93  1  0
 59 94  1  0
 61 95  1  0
 62 96  1  0
M  END
