
     RDKit          3D

 96110  0  0  0  0  0  0  0  0999 V2000
   -6.1384    3.6850    2.6002 C   0  0  0  0  0  0  0  0  0  0  0  0
   -7.2689    2.9687    2.9573 C   0  0  0  0  0  0  0  0  0  0  0  0
   -7.4792    1.6919    2.4278 C   0  0  0  0  0  0  0  0  0  0  0  0
   -6.5690    1.0837    1.5228 C   0  0  0  0  0  0  0  0  0  0  0  0
   -5.4268    1.8388    1.1774 C   0  0  0  0  0  0  0  0  0  0  0  0
   -5.2240    3.1221    1.7153 C   0  0  0  0  0  0  0  0  0  0  0  0
   -4.4833    1.3103    0.2916 C   0  0  0  0  0  0  0  0  0  0  0  0
   -4.6149    0.0335   -0.2855 C   0  0  0  0  0  0  0  0  0  0  0  0
   -5.7556   -0.7365    0.0522 C   0  0  0  0  0  0  0  0  0  0  0  0
   -6.7360   -0.2244    0.9506 C   0  0  0  0  0  0  0  0  0  0  0  0
   -7.8455   -1.0535    1.2354 C   0  0  0  0  0  0  0  0  0  0  0  0
   -7.9967   -2.3235    0.6753 C   0  0  0  0  0  0  0  0  0  0  0  0
   -7.0396   -2.8259   -0.2015 C   0  0  0  0  0  0  0  0  0  0  0  0
   -7.1858   -4.1012   -0.7675 C   0  0  0  0  0  0  0  0  0  0  0  0
   -6.2276   -4.5998   -1.6450 C   0  0  0  0  0  0  0  0  0  0  0  0
   -5.1140   -3.8280   -1.9642 C   0  0  0  0  0  0  0  0  0  0  0  0
   -4.9465   -2.5503   -1.4097 C   0  0  0  0  0  0  0  0  0  0  0  0
   -5.9130   -2.0333   -0.5180 C   0  0  0  0  0  0  0  0  0  0  0  0
   -3.8301   -1.7775   -1.7298 C   0  0  0  0  0  0  0  0  0  0  0  0
   -3.6466   -0.4955   -1.1845 C   0  0  0  0  0  0  0  0  0  0  0  0
   -2.4247    0.2567   -1.5791 C   0  0  0  0  0  0  0  0  0  0  0  0
   -2.4523    1.1040   -2.7335 C   0  0  0  0  0  0  0  0  0  0  0  0
   -3.5966    1.2931   -3.5481 C   0  0  0  0  0  0  0  0  0  0  0  0
   -3.5801    2.1318   -4.6650 C   0  0  0  0  0  0  0  0  0  0  0  0
   -2.4175    2.8089   -5.0023 C   0  0  0  0  0  0  0  0  0  0  0  0
   -1.2754    2.6456   -4.2216 C   0  0  0  0  0  0  0  0  0  0  0  0
   -1.2803    1.8042   -3.0950 C   0  0  0  0  0  0  0  0  0  0  0  0
   -0.1199    1.6588   -2.3261 C   0  0  0  0  0  0  0  0  0  0  0  0
   -0.0784    0.8348   -1.1941 C   0  0  0  0  0  0  0  0  0  0  0  0
    1.1105    0.7192   -0.4497 C   0  0  0  0  0  0  0  0  0  0  0  0
    1.2222   -0.0914    0.7053 C   0  0  0  0  0  0  0  0  0  0  0  0
    2.4231   -0.2285    1.4758 C   0  0  0  0  0  0  0  0  0  0  0  0
    3.6486    0.5124    1.0707 C   0  0  0  0  0  0  0  0  0  0  0  0
    3.8408    1.7998    1.6001 C   0  0  0  0  0  0  0  0  0  0  0  0
    4.9607    2.5624    1.2680 C   0  0  0  0  0  0  0  0  0  0  0  0
    5.9237    2.0274    0.3829 C   0  0  0  0  0  0  0  0  0  0  0  0
    7.0551    2.8087    0.0557 C   0  0  0  0  0  0  0  0  0  0  0  0
    7.2086    4.0916    0.6026 C   0  0  0  0  0  0  0  0  0  0  0  0
    6.2526    4.6087    1.4717 C   0  0  0  0  0  0  0  0  0  0  0  0
    5.1353    3.8475    1.8033 C   0  0  0  0  0  0  0  0  0  0  0  0
    8.0097    2.2877   -0.8130 C   0  0  0  0  0  0  0  0  0  0  0  0
    7.8512    1.0112   -1.3559 C   0  0  0  0  0  0  0  0  0  0  0  0
    6.7357    0.1936   -1.0616 C   0  0  0  0  0  0  0  0  0  0  0  0
    5.7582    0.7241   -0.1705 C   0  0  0  0  0  0  0  0  0  0  0  0
    4.6120   -0.0335    0.1761 C   0  0  0  0  0  0  0  0  0  0  0  0
    4.4703   -1.3153   -0.3878 C   0  0  0  0  0  0  0  0  0  0  0  0
    5.4113   -1.8622   -1.2654 C   0  0  0  0  0  0  0  0  0  0  0  0
    5.1998   -3.1506   -1.7878 C   0  0  0  0  0  0  0  0  0  0  0  0
    6.1120   -3.7320   -2.6632 C   0  0  0  0  0  0  0  0  0  0  0  0
    7.2492   -3.0293   -3.0264 C   0  0  0  0  0  0  0  0  0  0  0  0
    7.4680   -1.7474   -2.5126 C   0  0  0  0  0  0  0  0  0  0  0  0
    6.5602   -1.1205   -1.6176 C   0  0  0  0  0  0  0  0  0  0  0  0
    2.4516   -1.0737    2.6316 C   0  0  0  0  0  0  0  0  0  0  0  0
    3.5989   -1.2676    3.4415 C   0  0  0  0  0  0  0  0  0  0  0  0
    3.5833   -2.1046    4.5597 C   0  0  0  0  0  0  0  0  0  0  0  0
    2.4184   -2.7743    4.9034 C   0  0  0  0  0  0  0  0  0  0  0  0
    1.2735   -2.6061    4.1276 C   0  0  0  0  0  0  0  0  0  0  0  0
    1.2775   -1.7672    2.9991 C   0  0  0  0  0  0  0  0  0  0  0  0
    0.1148   -1.6188    2.2335 C   0  0  0  0  0  0  0  0  0  0  0  0
    0.0730   -0.7986    1.0985 C   0  0  0  0  0  0  0  0  0  0  0  0
   -1.1158   -0.6844    0.3531 C   0  0  0  0  0  0  0  0  0  0  0  0
   -1.2265    0.1245   -0.8036 C   0  0  0  0  0  0  0  0  0  0  0  0
   -5.9651    4.6774    3.0061 H   0  0  0  0  0  0  0  0  0  0  0  0
   -7.9913    3.3961    3.6473 H   0  0  0  0  0  0  0  0  0  0  0  0
   -8.3817    1.1765    2.7427 H   0  0  0  0  0  0  0  0  0  0  0  0
   -4.3412    3.6987    1.4445 H   0  0  0  0  0  0  0  0  0  0  0  0
   -3.6148    1.9205    0.0449 H   0  0  0  0  0  0  0  0  0  0  0  0
   -8.6306   -0.7248    1.9100 H   0  0  0  0  0  0  0  0  0  0  0  0
   -8.8743   -2.9110    0.9360 H   0  0  0  0  0  0  0  0  0  0  0  0
   -8.0506   -4.7163   -0.5283 H   0  0  0  0  0  0  0  0  0  0  0  0
   -6.3485   -5.5878   -2.0804 H   0  0  0  0  0  0  0  0  0  0  0  0
   -4.3745   -4.2322   -2.6523 H   0  0  0  0  0  0  0  0  0  0  0  0
   -3.0804   -2.1685   -2.4171 H   0  0  0  0  0  0  0  0  0  0  0  0
   -4.5305    0.7837   -3.3166 H   0  0  0  0  0  0  0  0  0  0  0  0
   -4.4783    2.2516   -5.2653 H   0  0  0  0  0  0  0  0  0  0  0  0
   -2.3976    3.4630   -5.8696 H   0  0  0  0  0  0  0  0  0  0  0  0
   -0.3728    3.1852   -4.5014 H   0  0  0  0  0  0  0  0  0  0  0  0
    0.7778    2.2040   -2.6163 H   0  0  0  0  0  0  0  0  0  0  0  0
    1.9804    1.2818   -0.7879 H   0  0  0  0  0  0  0  0  0  0  0  0
    3.0943    2.2039    2.2834 H   0  0  0  0  0  0  0  0  0  0  0  0
    8.0768    4.6982    0.3543 H   0  0  0  0  0  0  0  0  0  0  0  0
    6.3779    5.6032    1.8911 H   0  0  0  0  0  0  0  0  0  0  0  0
    4.3981    4.2663    2.4854 H   0  0  0  0  0  0  0  0  0  0  0  0
    8.8911    2.8659   -1.0808 H   0  0  0  0  0  0  0  0  0  0  0  0
    8.6351    0.6686   -2.0252 H   0  0  0  0  0  0  0  0  0  0  0  0
    3.5958   -1.9151   -0.1363 H   0  0  0  0  0  0  0  0  0  0  0  0
    4.3119   -3.7167   -1.5118 H   0  0  0  0  0  0  0  0  0  0  0  0
    5.9320   -4.7283   -3.0568 H   0  0  0  0  0  0  0  0  0  0  0  0
    7.9704   -3.4714   -3.7088 H   0  0  0  0  0  0  0  0  0  0  0  0
    8.3752   -1.2430   -2.8317 H   0  0  0  0  0  0  0  0  0  0  0  0
    4.5342   -0.7633    3.2045 H   0  0  0  0  0  0  0  0  0  0  0  0
    4.4836   -2.2295    5.1560 H   0  0  0  0  0  0  0  0  0  0  0  0
    2.3987   -3.4270    5.7718 H   0  0  0  0  0  0  0  0  0  0  0  0
    0.3693   -3.1406    4.4122 H   0  0  0  0  0  0  0  0  0  0  0  0
   -0.7854   -2.1573    2.5288 H   0  0  0  0  0  0  0  0  0  0  0  0
   -1.9856   -1.2475    0.6907 H   0  0  0  0  0  0  0  0  0  0  0  0
  1  2  4  0
  2  3  4  0
  3  4  4  0
  4  5  4  0
  5  6  4  0
  5  7  4  0
  7  8  4  0
  8  9  4  0
  9 10  4  0
 10 11  4  0
 11 12  4  0
 12 13  4  0
 13 14  4  0
 14 15  4  0
 15 16  4  0
 16 17  4  0
 17 18  4  0
 17 19  4  0
 19 20  4  0
 20 21  1  0
 21 22  4  0
 22 23  4  0
 23 24  4  0
 24 25  4  0
 25 26  4  0
 26 27  4  0
 27 28  4  0
 28 29  4  0
 29 30  4  0
 30 31  4  0
 31 32  4  0
 32 33  1  0
 33 34  4  0
 34 35  4  0
 35 36  4  0
 36 37  4  0
 37 38  4  0
 38 39  4  0
 39 40  4  0
 37 41  4  0
 41 42  4  0
 42 43  4  0
 43 44  4  0
 44 45  4  0
 45 46  4  0
 46 47  4  0
 47 48  4  0
 48 49  4  0
 49 50  4  0
 50 51  4  0
 51 52  4  0
 32 53  4  0
 53 54  4  0
 54 55  4  0
 55 56  4  0
 56 57  4  0
 57 58  4  0
 58 59  4  0
 59 60  4  0
 60 61  4  0
 61 62  4  0
  6  1  4  0
 20  8  4  0
 62 21  4  0
 10  4  4  0
 18 13  4  0
 27 22  4  0
 62 29  4  0
 18  9  4  0
 60 31  4  0
 45 33  4  0
 52 47  4  0
 58 53  4  0
 40 35  4  0
 52 43  4  0
 44 36  4  0
  1 63  1  0
  2 64  1  0
  3 65  1  0
  6 66  1  0
  7 67  1  0
 11 68  1  0
 12 69  1  0
 14 70  1  0
 15 71  1  0
 16 72  1  0
 19 73  1  0
 23 74  1  0
 24 75  1  0
 25 76  1  0
 26 77  1  0
 28 78  1  0
 30 79  1  0
 34 80  1  0
 38 81  1  0
 39 82  1  0
 40 83  1  0
 41 84  1  0
 42 85  1  0
 46 86  1  0
 48 87  1  0
 49 88  1  0
 50 89  1  0
 51 90  1  0
 54 91  1  0
 55 92  1  0
 56 93  1  0
 57 94  1  0
 59 95  1  0
 61 96  1  0
M  END
