
     RDKit          3D

 96110  0  0  0  0  0  0  0  0999 V2000
    7.7416   -3.1305   -2.9303 C   0  0  0  0  0  0  0  0  0  0  0  0
    8.4750   -1.9573   -2.7776 C   0  0  0  0  0  0  0  0  0  0  0  0
    7.9776   -0.9005   -2.0004 C   0  0  0  0  0  0  0  0  0  0  0  0
    6.7173   -1.0199   -1.3613 C   0  0  0  0  0  0  0  0  0  0  0  0
    5.9874   -2.2123   -1.5260 C   0  0  0  0  0  0  0  0  0  0  0  0
    6.5033   -3.2574   -2.3077 C   0  0  0  0  0  0  0  0  0  0  0  0
    4.7534   -2.3284   -0.9008 C   0  0  0  0  0  0  0  0  0  0  0  0
    4.2481   -1.2808   -0.1214 C   0  0  0  0  0  0  0  0  0  0  0  0
    4.9266   -0.0549    0.0919 C   0  0  0  0  0  0  0  0  0  0  0  0
    6.1914    0.0431   -0.5635 C   0  0  0  0  0  0  0  0  0  0  0  0
    6.9665    1.2113   -0.4367 C   0  0  0  0  0  0  0  0  0  0  0  0
    6.4924    2.2706    0.3293 C   0  0  0  0  0  0  0  0  0  0  0  0
    5.2643    2.2167    0.9898 C   0  0  0  0  0  0  0  0  0  0  0  0
    4.9067    3.3530    1.7337 C   0  0  0  0  0  0  0  0  0  0  0  0
    3.7161    3.4158    2.4348 C   0  0  0  0  0  0  0  0  0  0  0  0
    2.8653    2.3294    2.3965 C   0  0  0  0  0  0  0  0  0  0  0  0
    3.1859    1.1628    1.6579 C   0  0  0  0  0  0  0  0  0  0  0  0
    2.1554    0.0944    1.7360 C   0  0  0  0  0  0  0  0  0  0  0  0
    2.2227   -0.8832    2.7826 C   0  0  0  0  0  0  0  0  0  0  0  0
    3.2628   -0.9424    3.7440 C   0  0  0  0  0  0  0  0  0  0  0  0
    3.2932   -1.9180    4.7429 C   0  0  0  0  0  0  0  0  0  0  0  0
    2.2827   -2.8654    4.8118 C   0  0  0  0  0  0  0  0  0  0  0  0
    1.2462   -2.8351    3.8814 C   0  0  0  0  0  0  0  0  0  0  0  0
    1.2053   -1.8588    2.8708 C   0  0  0  0  0  0  0  0  0  0  0  0
    0.1539   -1.8522    1.9459 C   0  0  0  0  0  0  0  0  0  0  0  0
    0.0739   -0.9024    0.9189 C   0  0  0  0  0  0  0  0  0  0  0  0
   -0.9992   -0.9361    0.0092 C   0  0  0  0  0  0  0  0  0  0  0  0
   -1.1416   -0.0096   -1.0515 C   0  0  0  0  0  0  0  0  0  0  0  0
   -2.2284   -0.0220   -1.9889 C   0  0  0  0  0  0  0  0  0  0  0  0
   -3.2533   -1.0956   -1.9114 C   0  0  0  0  0  0  0  0  0  0  0  0
   -4.4583   -1.0358   -1.1009 C   0  0  0  0  0  0  0  0  0  0  0  0
   -5.2686   -2.2076   -1.1514 C   0  0  0  0  0  0  0  0  0  0  0  0
   -4.9318   -3.3193   -1.9409 C   0  0  0  0  0  0  0  0  0  0  0  0
   -3.7840   -3.3400   -2.7120 C   0  0  0  0  0  0  0  0  0  0  0  0
   -2.9519   -2.2387   -2.6932 C   0  0  0  0  0  0  0  0  0  0  0  0
   -6.4449   -2.3093   -0.4078 C   0  0  0  0  0  0  0  0  0  0  0  0
   -6.8889   -1.2811    0.4163 C   0  0  0  0  0  0  0  0  0  0  0  0
   -8.0738   -1.4414    1.1487 C   0  0  0  0  0  0  0  0  0  0  0  0
   -8.5448   -0.4292    1.9799 C   0  0  0  0  0  0  0  0  0  0  0  0
   -7.8406    0.7692    2.0951 C   0  0  0  0  0  0  0  0  0  0  0  0
   -6.6419    0.9434    1.3582 C   0  0  0  0  0  0  0  0  0  0  0  0
   -5.9447    2.1602    1.4815 C   0  0  0  0  0  0  0  0  0  0  0  0
   -6.4309    3.1745    2.3209 C   0  0  0  0  0  0  0  0  0  0  0  0
   -7.6071    2.9924    3.0421 C   0  0  0  0  0  0  0  0  0  0  0  0
   -8.3088    1.7955    2.9292 C   0  0  0  0  0  0  0  0  0  0  0  0
   -4.7745    2.3325    0.7551 C   0  0  0  0  0  0  0  0  0  0  0  0
   -4.2965    1.3137   -0.0778 C   0  0  0  0  0  0  0  0  0  0  0  0
   -4.9380    0.0609   -0.2432 C   0  0  0  0  0  0  0  0  0  0  0  0
   -6.1447   -0.0894    0.5045 C   0  0  0  0  0  0  0  0  0  0  0  0
   -2.2973    0.9553   -3.0354 C   0  0  0  0  0  0  0  0  0  0  0  0
   -3.3392    1.0153   -3.9949 C   0  0  0  0  0  0  0  0  0  0  0  0
   -3.3683    1.9892   -4.9957 C   0  0  0  0  0  0  0  0  0  0  0  0
   -2.3548    2.9334   -5.0681 C   0  0  0  0  0  0  0  0  0  0  0  0
   -1.3178    2.9034   -4.1381 C   0  0  0  0  0  0  0  0  0  0  0  0
   -1.2795    1.9300   -3.1248 C   0  0  0  0  0  0  0  0  0  0  0  0
   -0.2291    1.9255   -2.1988 C   0  0  0  0  0  0  0  0  0  0  0  0
   -0.1479    0.9768   -1.1709 C   0  0  0  0  0  0  0  0  0  0  0  0
    0.9264    1.0099   -0.2618 C   0  0  0  0  0  0  0  0  0  0  0  0
    1.0680    0.0838    0.7994 C   0  0  0  0  0  0  0  0  0  0  0  0
    4.4281    1.0649    0.9088 C   0  0  0  0  0  0  0  0  0  0  0  0
    8.2115    1.3180   -1.0736 C   0  0  0  0  0  0  0  0  0  0  0  0
    8.7127    0.2747   -1.8466 C   0  0  0  0  0  0  0  0  0  0  0  0
    8.1340   -3.9450   -3.5328 H   0  0  0  0  0  0  0  0  0  0  0  0
    9.4409   -1.8733   -3.2705 H   0  0  0  0  0  0  0  0  0  0  0  0
    5.9416   -4.1801   -2.4353 H   0  0  0  0  0  0  0  0  0  0  0  0
    4.1591   -3.2336   -1.0050 H   0  0  0  0  0  0  0  0  0  0  0  0
    3.2802   -1.4776    0.3168 H   0  0  0  0  0  0  0  0  0  0  0  0
    7.1059    3.1674    0.4147 H   0  0  0  0  0  0  0  0  0  0  0  0
    5.5686    4.2173    1.7768 H   0  0  0  0  0  0  0  0  0  0  0  0
    3.4565    4.3014    3.0069 H   0  0  0  0  0  0  0  0  0  0  0  0
    1.9279    2.3773    2.9509 H   0  0  0  0  0  0  0  0  0  0  0  0
    4.0784   -0.2219    3.7196 H   0  0  0  0  0  0  0  0  0  0  0  0
    4.1095   -1.9341    5.4604 H   0  0  0  0  0  0  0  0  0  0  0  0
    2.3005   -3.6284    5.5853 H   0  0  0  0  0  0  0  0  0  0  0  0
    0.4640   -3.5884    3.9499 H   0  0  0  0  0  0  0  0  0  0  0  0
   -0.6259   -2.6092    2.0268 H   0  0  0  0  0  0  0  0  0  0  0  0
   -1.7538   -1.7115    0.1383 H   0  0  0  0  0  0  0  0  0  0  0  0
   -5.5744   -4.1987   -1.9620 H   0  0  0  0  0  0  0  0  0  0  0  0
   -3.5376   -4.2081   -3.3157 H   0  0  0  0  0  0  0  0  0  0  0  0
   -2.0418   -2.2590   -3.2928 H   0  0  0  0  0  0  0  0  0  0  0  0
   -7.0373   -3.2222   -0.4673 H   0  0  0  0  0  0  0  0  0  0  0  0
   -8.6465   -2.3640    1.0789 H   0  0  0  0  0  0  0  0  0  0  0  0
   -9.4668   -0.5876    2.5340 H   0  0  0  0  0  0  0  0  0  0  0  0
   -5.8940    4.1156    2.4171 H   0  0  0  0  0  0  0  0  0  0  0  0
   -7.9768    3.7823    3.6901 H   0  0  0  0  0  0  0  0  0  0  0  0
   -9.2271    1.6689    3.4981 H   0  0  0  0  0  0  0  0  0  0  0  0
   -4.2107    3.2607    0.8189 H   0  0  0  0  0  0  0  0  0  0  0  0
   -3.3842    1.5575   -0.6028 H   0  0  0  0  0  0  0  0  0  0  0  0
   -4.1568    0.2970   -3.9670 H   0  0  0  0  0  0  0  0  0  0  0  0
   -4.1854    2.0062   -5.7125 H   0  0  0  0  0  0  0  0  0  0  0  0
   -2.3704    3.6940   -5.8439 H   0  0  0  0  0  0  0  0  0  0  0  0
   -0.5319    3.6529   -4.2096 H   0  0  0  0  0  0  0  0  0  0  0  0
    0.5503    2.6826   -2.2804 H   0  0  0  0  0  0  0  0  0  0  0  0
    1.6822    1.7840   -0.3917 H   0  0  0  0  0  0  0  0  0  0  0  0
    8.8090    2.2218   -0.9721 H   0  0  0  0  0  0  0  0  0  0  0  0
    9.6821    0.3909   -2.3255 H   0  0  0  0  0  0  0  0  0  0  0  0
  1  2  4  0
  2  3  4  0
  3  4  4  0
  4  5  4  0
  5  6  4  0
  5  7  4  0
  7  8  4  0
  8  9  4  0
  9 10  4  0
 10 11  4  0
 11 12  4  0
 12 13  4  0
 13 14  4  0
 14 15  4  0
 15 16  4  0
 16 17  4  0
 17 18  1  0
 18 19  4  0
 19 20  4  0
 20 21  4  0
 21 22  4  0
 22 23  4  0
 23 24  4  0
 24 25  4  0
 25 26  4  0
 26 27  4  0
 27 28  4  0
 28 29  4  0
 29 30  1  0
 30 31  4  0
 31 32  4  0
 32 33  4  0
 33 34  4  0
 34 35  4  0
 32 36  4  0
 36 37  4  0
 37 38  4  0
 38 39  4  0
 39 40  4  0
 40 41  4  0
 41 42  4  0
 42 43  4  0
 43 44  4  0
 44 45  4  0
 42 46  4  0
 46 47  4  0
 47 48  4  0
 48 49  4  0
 29 50  4  0
 50 51  4  0
 51 52  4  0
 52 53  4  0
 53 54  4  0
 54 55  4  0
 55 56  4  0
 56 57  4  0
 57 58  4  0
 58 59  4  0
 17 60  4  0
 11 61  4  0
 61 62  4  0
  6  1  4  0
 60  9  4  0
 62  3  4  0
 10  4  4  0
 60 13  4  0
 59 18  4  0
 24 19  4  0
 59 26  4  0
 57 28  4  0
 35 30  4  0
 49 37  4  0
 55 50  4  0
 48 31  4  0
 45 40  4  0
 49 41  4  0
  1 63  1  0
  2 64  1  0
  6 65  1  0
  7 66  1  0
  8 67  1  0
 12 68  1  0
 14 69  1  0
 15 70  1  0
 16 71  1  0
 20 72  1  0
 21 73  1  0
 22 74  1  0
 23 75  1  0
 25 76  1  0
 27 77  1  0
 33 78  1  0
 34 79  1  0
 35 80  1  0
 36 81  1  0
 38 82  1  0
 39 83  1  0
 43 84  1  0
 44 85  1  0
 45 86  1  0
 46 87  1  0
 47 88  1  0
 51 89  1  0
 52 90  1  0
 53 91  1  0
 54 92  1  0
 56 93  1  0
 58 94  1  0
 61 95  1  0
 62 96  1  0
M  END
