
     RDKit          3D

 96110  0  0  0  0  0  0  0  0999 V2000
    3.4958    0.2725   -4.8361 C   0  0  0  0  0  0  0  0  0  0  0  0
    2.5352    0.8294   -4.0173 C   0  0  0  0  0  0  0  0  0  0  0  0
    2.8157    1.0505   -2.6623 C   0  0  0  0  0  0  0  0  0  0  0  0
    4.0578    0.7303   -2.0445 C   0  0  0  0  0  0  0  0  0  0  0  0
    5.0116    0.1621   -2.9300 C   0  0  0  0  0  0  0  0  0  0  0  0
    4.7284   -0.0575   -4.2914 C   0  0  0  0  0  0  0  0  0  0  0  0
    6.2725   -0.1986   -2.4697 C   0  0  0  0  0  0  0  0  0  0  0  0
    6.6420   -0.0204   -1.1426 C   0  0  0  0  0  0  0  0  0  0  0  0
    7.9296   -0.4075   -0.7475 C   0  0  0  0  0  0  0  0  0  0  0  0
    8.3530   -0.2520    0.5668 C   0  0  0  0  0  0  0  0  0  0  0  0
    7.4938    0.2956    1.5158 C   0  0  0  0  0  0  0  0  0  0  0  0
    6.1859    0.6913    1.1291 C   0  0  0  0  0  0  0  0  0  0  0  0
    5.3425    1.2390    2.1086 C   0  0  0  0  0  0  0  0  0  0  0  0
    5.7855    1.3899    3.4322 C   0  0  0  0  0  0  0  0  0  0  0  0
    7.0687    0.9993    3.7982 C   0  0  0  0  0  0  0  0  0  0  0  0
    7.9194    0.4541    2.8428 C   0  0  0  0  0  0  0  0  0  0  0  0
    4.0621    1.6272    1.7424 C   0  0  0  0  0  0  0  0  0  0  0  0
    3.5815    1.4897    0.4184 C   0  0  0  0  0  0  0  0  0  0  0  0
    2.1811    1.9557    0.2381 C   0  0  0  0  0  0  0  0  0  0  0  0
    1.9231    3.3325   -0.0680 C   0  0  0  0  0  0  0  0  0  0  0  0
    2.9378    4.3007   -0.2733 C   0  0  0  0  0  0  0  0  0  0  0  0
    2.6404    5.6306   -0.5784 C   0  0  0  0  0  0  0  0  0  0  0  0
    1.3179    6.0342   -0.6869 C   0  0  0  0  0  0  0  0  0  0  0  0
    0.2968    5.1070   -0.4919 C   0  0  0  0  0  0  0  0  0  0  0  0
    0.5839    3.7651   -0.1865 C   0  0  0  0  0  0  0  0  0  0  0  0
   -0.4605    2.8510   -0.0023 C   0  0  0  0  0  0  0  0  0  0  0  0
   -0.2239    1.5033    0.2984 C   0  0  0  0  0  0  0  0  0  0  0  0
   -1.3047    0.6177    0.4635 C   0  0  0  0  0  0  0  0  0  0  0  0
   -1.1375   -0.7576    0.7530 C   0  0  0  0  0  0  0  0  0  0  0  0
   -2.2227   -1.6849    0.9002 C   0  0  0  0  0  0  0  0  0  0  0  0
   -3.6248   -1.1985    0.8082 C   0  0  0  0  0  0  0  0  0  0  0  0
   -4.1759   -0.8073    2.0516 C   0  0  0  0  0  0  0  0  0  0  0  0
   -5.4665   -0.3118    2.1654 C   0  0  0  0  0  0  0  0  0  0  0  0
   -5.9806    0.0674    3.4155 C   0  0  0  0  0  0  0  0  0  0  0  0
   -7.2726    0.5688    3.5271 C   0  0  0  0  0  0  0  0  0  0  0  0
   -8.0619    0.6939    2.3892 C   0  0  0  0  0  0  0  0  0  0  0  0
   -7.5656    0.3184    1.1324 C   0  0  0  0  0  0  0  0  0  0  0  0
   -6.2477   -0.1948    1.0047 C   0  0  0  0  0  0  0  0  0  0  0  0
   -5.7198   -0.5842   -0.2652 C   0  0  0  0  0  0  0  0  0  0  0  0
   -4.3914   -1.1034   -0.4161 C   0  0  0  0  0  0  0  0  0  0  0  0
   -3.9603   -1.4724   -1.7767 C   0  0  0  0  0  0  0  0  0  0  0  0
   -2.6953   -2.0087   -2.1497 C   0  0  0  0  0  0  0  0  0  0  0  0
   -2.3403   -2.3348   -3.4655 C   0  0  0  0  0  0  0  0  0  0  0  0
   -3.2456   -2.1440   -4.4889 C   0  0  0  0  0  0  0  0  0  0  0  0
   -4.4978   -1.6294   -4.1862 C   0  0  0  0  0  0  0  0  0  0  0  0
   -4.8554   -1.2986   -2.8654 C   0  0  0  0  0  0  0  0  0  0  0  0
   -6.1310   -0.7889   -2.6537 C   0  0  0  0  0  0  0  0  0  0  0  0
   -6.5722   -0.4335   -1.3854 C   0  0  0  0  0  0  0  0  0  0  0  0
   -7.8707    0.0746   -1.2455 C   0  0  0  0  0  0  0  0  0  0  0  0
   -8.3640    0.4471   -0.0011 C   0  0  0  0  0  0  0  0  0  0  0  0
   -1.9651   -3.0654    1.1895 C   0  0  0  0  0  0  0  0  0  0  0  0
   -2.9792   -4.0434    1.3451 C   0  0  0  0  0  0  0  0  0  0  0  0
   -2.6823   -5.3801    1.6199 C   0  0  0  0  0  0  0  0  0  0  0  0
   -1.3606   -5.7807    1.7475 C   0  0  0  0  0  0  0  0  0  0  0  0
   -0.3399   -4.8445    1.5980 C   0  0  0  0  0  0  0  0  0  0  0  0
   -0.6264   -3.4964    1.3198 C   0  0  0  0  0  0  0  0  0  0  0  0
    0.4178   -2.5760    1.1669 C   0  0  0  0  0  0  0  0  0  0  0  0
    0.1816   -1.2240    0.8850 C   0  0  0  0  0  0  0  0  0  0  0  0
    1.2624   -0.3367    0.7271 C   0  0  0  0  0  0  0  0  0  0  0  0
    1.0954    1.0366    0.4276 C   0  0  0  0  0  0  0  0  0  0  0  0
    4.4128    0.9338   -0.6282 C   0  0  0  0  0  0  0  0  0  0  0  0
    5.7296    0.5408   -0.2171 C   0  0  0  0  0  0  0  0  0  0  0  0
    3.2921    0.0972   -5.8879 H   0  0  0  0  0  0  0  0  0  0  0  0
    1.5610    1.0998   -4.4165 H   0  0  0  0  0  0  0  0  0  0  0  0
    2.0030    1.4943   -2.1058 H   0  0  0  0  0  0  0  0  0  0  0  0
    5.4786   -0.4941   -4.9484 H   0  0  0  0  0  0  0  0  0  0  0  0
    6.9899   -0.6310   -3.1664 H   0  0  0  0  0  0  0  0  0  0  0  0
    8.6237   -0.8383   -1.4667 H   0  0  0  0  0  0  0  0  0  0  0  0
    9.3592   -0.5627    0.8376 H   0  0  0  0  0  0  0  0  0  0  0  0
    5.1297    1.8153    4.1892 H   0  0  0  0  0  0  0  0  0  0  0  0
    7.4046    1.1195    4.8245 H   0  0  0  0  0  0  0  0  0  0  0  0
    8.9207    0.1531    3.1421 H   0  0  0  0  0  0  0  0  0  0  0  0
    3.3991    2.0522    2.4973 H   0  0  0  0  0  0  0  0  0  0  0  0
    3.9882    4.0229   -0.2054 H   0  0  0  0  0  0  0  0  0  0  0  0
    3.4455    6.3438   -0.7334 H   0  0  0  0  0  0  0  0  0  0  0  0
    1.0795    7.0667   -0.9261 H   0  0  0  0  0  0  0  0  0  0  0  0
   -0.7348    5.4412   -0.5833 H   0  0  0  0  0  0  0  0  0  0  0  0
   -1.4891    3.1972   -0.1003 H   0  0  0  0  0  0  0  0  0  0  0  0
   -2.3126    1.0153    0.3478 H   0  0  0  0  0  0  0  0  0  0  0  0
   -3.5596   -0.8970    2.9474 H   0  0  0  0  0  0  0  0  0  0  0  0
   -5.3745   -0.0265    4.3143 H   0  0  0  0  0  0  0  0  0  0  0  0
   -7.6628    0.8606    4.4981 H   0  0  0  0  0  0  0  0  0  0  0  0
   -9.0709    1.0868    2.4907 H   0  0  0  0  0  0  0  0  0  0  0  0
   -1.9224   -2.1999   -1.4196 H   0  0  0  0  0  0  0  0  0  0  0  0
   -1.3523   -2.7381   -3.6722 H   0  0  0  0  0  0  0  0  0  0  0  0
   -2.9839   -2.3940   -5.5124 H   0  0  0  0  0  0  0  0  0  0  0  0
   -5.2039   -1.4863   -5.0022 H   0  0  0  0  0  0  0  0  0  0  0  0
   -6.8025   -0.6656   -3.5026 H   0  0  0  0  0  0  0  0  0  0  0  0
   -8.5182    0.1868   -2.1131 H   0  0  0  0  0  0  0  0  0  0  0  0
   -9.3764    0.8373    0.0702 H   0  0  0  0  0  0  0  0  0  0  0  0
   -4.0286   -3.7717    1.2442 H   0  0  0  0  0  0  0  0  0  0  0  0
   -3.4869   -6.1023    1.7295 H   0  0  0  0  0  0  0  0  0  0  0  0
   -1.1225   -6.8193    1.9593 H   0  0  0  0  0  0  0  0  0  0  0  0
    0.6913   -5.1777    1.6987 H   0  0  0  0  0  0  0  0  0  0  0  0
    1.4462   -2.9227    1.2657 H   0  0  0  0  0  0  0  0  0  0  0  0
    2.2707   -0.7371    0.8284 H   0  0  0  0  0  0  0  0  0  0  0  0
  1  2  4  0
  2  3  4  0
  3  4  4  0
  4  5  4  0
  5  6  4  0
  5  7  4  0
  7  8  4  0
  8  9  4  0
  9 10  4  0
 10 11  4  0
 11 12  4  0
 12 13  4  0
 13 14  4  0
 14 15  4  0
 15 16  4  0
 13 17  4  0
 17 18  4  0
 18 19  1  0
 19 20  4  0
 20 21  4  0
 21 22  4  0
 22 23  4  0
 23 24  4  0
 24 25  4  0
 25 26  4  0
 26 27  4  0
 27 28  4  0
 28 29  4  0
 29 30  4  0
 30 31  1  0
 31 32  4  0
 32 33  4  0
 33 34  4  0
 34 35  4  0
 35 36  4  0
 36 37  4  0
 37 38  4  0
 38 39  4  0
 39 40  4  0
 40 41  4  0
 41 42  4  0
 42 43  4  0
 43 44  4  0
 44 45  4  0
 45 46  4  0
 46 47  4  0
 47 48  4  0
 48 49  4  0
 49 50  4  0
 30 51  4  0
 51 52  4  0
 52 53  4  0
 53 54  4  0
 54 55  4  0
 55 56  4  0
 56 57  4  0
 57 58  4  0
 58 59  4  0
 59 60  4  0
 18 61  4  0
 61 62  4  0
  6  1  4  0
 62  8  4  0
 61  4  4  0
 16 11  4  0
 60 19  4  0
 62 12  4  0
 25 20  4  0
 60 27  4  0
 58 29  4  0
 40 31  4  0
 46 41  4  0
 56 51  4  0
 38 33  4  0
 48 39  4  0
 50 37  4  0
  1 63  1  0
  2 64  1  0
  3 65  1  0
  6 66  1  0
  7 67  1  0
  9 68  1  0
 10 69  1  0
 14 70  1  0
 15 71  1  0
 16 72  1  0
 17 73  1  0
 21 74  1  0
 22 75  1  0
 23 76  1  0
 24 77  1  0
 26 78  1  0
 28 79  1  0
 32 80  1  0
 34 81  1  0
 35 82  1  0
 36 83  1  0
 42 84  1  0
 43 85  1  0
 44 86  1  0
 45 87  1  0
 47 88  1  0
 49 89  1  0
 50 90  1  0
 52 91  1  0
 53 92  1  0
 54 93  1  0
 55 94  1  0
 57 95  1  0
 59 96  1  0
M  END
