
     RDKit          3D

 96110  0  0  0  0  0  0  0  0999 V2000
  -12.4142   -0.9402    0.5358 C   0  0  0  0  0  0  0  0  0  0  0  0
  -11.9618   -0.8701   -0.7720 C   0  0  0  0  0  0  0  0  0  0  0  0
  -10.6414   -0.4917   -1.0329 C   0  0  0  0  0  0  0  0  0  0  0  0
   -9.7255   -0.1701    0.0020 C   0  0  0  0  0  0  0  0  0  0  0  0
  -10.2153   -0.2510    1.3287 C   0  0  0  0  0  0  0  0  0  0  0  0
  -11.5452   -0.6322    1.5785 C   0  0  0  0  0  0  0  0  0  0  0  0
   -9.3739    0.0487    2.4048 C   0  0  0  0  0  0  0  0  0  0  0  0
   -8.0439    0.4293    2.2089 C   0  0  0  0  0  0  0  0  0  0  0  0
   -7.2217    0.7212    3.3056 C   0  0  0  0  0  0  0  0  0  0  0  0
   -5.8921    1.0986    3.1227 C   0  0  0  0  0  0  0  0  0  0  0  0
   -5.3524    1.1938    1.8370 C   0  0  0  0  0  0  0  0  0  0  0  0
   -6.1704    0.9055    0.7189 C   0  0  0  0  0  0  0  0  0  0  0  0
   -5.6251    1.0036   -0.5781 C   0  0  0  0  0  0  0  0  0  0  0  0
   -4.2840    1.3806   -0.7463 C   0  0  0  0  0  0  0  0  0  0  0  0
   -3.4659    1.6617    0.3565 C   0  0  0  0  0  0  0  0  0  0  0  0
   -2.0487    2.0394    0.1653 C   0  0  0  0  0  0  0  0  0  0  0  0
   -1.6899    3.4192    0.0354 C   0  0  0  0  0  0  0  0  0  0  0  0
   -2.6219    4.4866    0.0810 C   0  0  0  0  0  0  0  0  0  0  0  0
   -2.2284    5.8204   -0.0504 C   0  0  0  0  0  0  0  0  0  0  0  0
   -0.8885    6.1289   -0.2319 C   0  0  0  0  0  0  0  0  0  0  0  0
    0.0531    5.1034   -0.2816 C   0  0  0  0  0  0  0  0  0  0  0  0
   -0.3312    3.7571   -0.1508 C   0  0  0  0  0  0  0  0  0  0  0  0
    0.6348    2.7453   -0.2058 C   0  0  0  0  0  0  0  0  0  0  0  0
    0.2983    1.3912   -0.0806 C   0  0  0  0  0  0  0  0  0  0  0  0
    1.3019    0.4060   -0.1436 C   0  0  0  0  0  0  0  0  0  0  0  0
    1.0340   -0.9794   -0.0255 C   0  0  0  0  0  0  0  0  0  0  0  0
    2.0388   -1.9994   -0.0893 C   0  0  0  0  0  0  0  0  0  0  0  0
    3.4549   -1.6227   -0.2917 C   0  0  0  0  0  0  0  0  0  0  0  0
    3.9788   -1.4796   -1.5840 C   0  0  0  0  0  0  0  0  0  0  0  0
    5.3180   -1.1140   -1.7888 C   0  0  0  0  0  0  0  0  0  0  0  0
    6.1626   -0.8870   -0.6763 C   0  0  0  0  0  0  0  0  0  0  0  0
    5.6413   -1.0330    0.6261 C   0  0  0  0  0  0  0  0  0  0  0  0
    4.2977   -1.3968    0.8052 C   0  0  0  0  0  0  0  0  0  0  0  0
    6.4785   -0.8105    1.7186 C   0  0  0  0  0  0  0  0  0  0  0  0
    7.8150   -0.4462    1.5289 C   0  0  0  0  0  0  0  0  0  0  0  0
    8.3814   -0.2858    0.2429 C   0  0  0  0  0  0  0  0  0  0  0  0
    7.5238   -0.5152   -0.8661 C   0  0  0  0  0  0  0  0  0  0  0  0
    8.0142   -0.3762   -2.1826 C   0  0  0  0  0  0  0  0  0  0  0  0
    9.3474   -0.0116   -2.3890 C   0  0  0  0  0  0  0  0  0  0  0  0
   10.2167    0.2216   -1.3185 C   0  0  0  0  0  0  0  0  0  0  0  0
   11.5494    0.5866   -1.5787 C   0  0  0  0  0  0  0  0  0  0  0  0
   12.4460    0.8276   -0.5416 C   0  0  0  0  0  0  0  0  0  0  0  0
   12.0191    0.7058    0.7710 C   0  0  0  0  0  0  0  0  0  0  0  0
   10.6962    0.3431    1.0421 C   0  0  0  0  0  0  0  0  0  0  0  0
    9.7522    0.0894    0.0132 C   0  0  0  0  0  0  0  0  0  0  0  0
    7.1646   -0.6040   -3.2737 C   0  0  0  0  0  0  0  0  0  0  0  0
    5.8331   -0.9690   -3.0799 C   0  0  0  0  0  0  0  0  0  0  0  0
    1.6810   -3.3794    0.0419 C   0  0  0  0  0  0  0  0  0  0  0  0
    2.6128   -4.4468   -0.0119 C   0  0  0  0  0  0  0  0  0  0  0  0
    2.2206   -5.7808    0.1228 C   0  0  0  0  0  0  0  0  0  0  0  0
    0.8825   -6.0897    0.3157 C   0  0  0  0  0  0  0  0  0  0  0  0
   -0.0589   -5.0641    0.3721 C   0  0  0  0  0  0  0  0  0  0  0  0
    0.3236   -3.7176    0.2370 C   0  0  0  0  0  0  0  0  0  0  0  0
   -0.6426   -2.7060    0.2952 C   0  0  0  0  0  0  0  0  0  0  0  0
   -0.3077   -1.3517    0.1663 C   0  0  0  0  0  0  0  0  0  0  0  0
   -1.3118   -0.3665    0.2291 C   0  0  0  0  0  0  0  0  0  0  0  0
   -1.0438    1.0189    0.1076 C   0  0  0  0  0  0  0  0  0  0  0  0
   -4.0139    1.5673    1.6432 C   0  0  0  0  0  0  0  0  0  0  0  0
   -6.4353    0.7186   -1.6763 C   0  0  0  0  0  0  0  0  0  0  0  0
   -7.7685    0.3377   -1.4975 C   0  0  0  0  0  0  0  0  0  0  0  0
   -8.3582    0.2231   -0.2170 C   0  0  0  0  0  0  0  0  0  0  0  0
   -7.5286    0.5184    0.8976 C   0  0  0  0  0  0  0  0  0  0  0  0
  -13.4388   -1.2336    0.7469 H   0  0  0  0  0  0  0  0  0  0  0  0
  -12.6307   -1.1088   -1.5947 H   0  0  0  0  0  0  0  0  0  0  0  0
  -10.3406   -0.4542   -2.0759 H   0  0  0  0  0  0  0  0  0  0  0  0
  -11.9180   -0.6934    2.5992 H   0  0  0  0  0  0  0  0  0  0  0  0
   -9.7629   -0.0174    3.4199 H   0  0  0  0  0  0  0  0  0  0  0  0
   -7.6103    0.6558    4.3198 H   0  0  0  0  0  0  0  0  0  0  0  0
   -5.2829    1.3167    3.9972 H   0  0  0  0  0  0  0  0  0  0  0  0
   -3.8616    1.4537   -1.7477 H   0  0  0  0  0  0  0  0  0  0  0  0
   -3.6827    4.2869    0.2217 H   0  0  0  0  0  0  0  0  0  0  0  0
   -2.9721    6.6119   -0.0100 H   0  0  0  0  0  0  0  0  0  0  0  0
   -0.5745    7.1639   -0.3350 H   0  0  0  0  0  0  0  0  0  0  0  0
    1.1000    5.3646   -0.4246 H   0  0  0  0  0  0  0  0  0  0  0  0
    1.6795    3.0193   -0.3510 H   0  0  0  0  0  0  0  0  0  0  0  0
    2.3305    0.7350   -0.2902 H   0  0  0  0  0  0  0  0  0  0  0  0
    3.3270   -1.6552   -2.4389 H   0  0  0  0  0  0  0  0  0  0  0  0
    3.8945   -1.5071    1.8111 H   0  0  0  0  0  0  0  0  0  0  0  0
    6.1039   -0.9181    2.7344 H   0  0  0  0  0  0  0  0  0  0  0  0
    8.4092   -0.2891    2.4245 H   0  0  0  0  0  0  0  0  0  0  0  0
    9.7173    0.0931   -3.4080 H   0  0  0  0  0  0  0  0  0  0  0  0
   11.9031    0.6866   -2.6031 H   0  0  0  0  0  0  0  0  0  0  0  0
   13.4724    1.1088   -0.7607 H   0  0  0  0  0  0  0  0  0  0  0  0
   12.7102    0.8913    1.5892 H   0  0  0  0  0  0  0  0  0  0  0  0
   10.4159    0.2617    2.0883 H   0  0  0  0  0  0  0  0  0  0  0  0
    7.5337   -0.4998   -4.2920 H   0  0  0  0  0  0  0  0  0  0  0  0
    5.2026   -1.1388   -3.9501 H   0  0  0  0  0  0  0  0  0  0  0  0
    3.6724   -4.2474   -0.1621 H   0  0  0  0  0  0  0  0  0  0  0  0
    2.9648   -6.5716    0.0764 H   0  0  0  0  0  0  0  0  0  0  0  0
    0.5695   -7.1249    0.4220 H   0  0  0  0  0  0  0  0  0  0  0  0
   -1.1042   -5.3262    0.5236 H   0  0  0  0  0  0  0  0  0  0  0  0
   -1.6865   -2.9802    0.4458 H   0  0  0  0  0  0  0  0  0  0  0  0
   -2.3402   -0.6954    0.3784 H   0  0  0  0  0  0  0  0  0  0  0  0
   -3.3810    1.7852    2.5024 H   0  0  0  0  0  0  0  0  0  0  0  0
   -6.0405    0.7866   -2.6879 H   0  0  0  0  0  0  0  0  0  0  0  0
   -8.3408    0.1299   -2.3969 H   0  0  0  0  0  0  0  0  0  0  0  0
  1  2  4  0
  2  3  4  0
  3  4  4  0
  4  5  4  0
  5  6  4  0
  5  7  4  0
  7  8  4  0
  8  9  4  0
  9 10  4  0
 10 11  4  0
 11 12  4  0
 12 13  4  0
 13 14  4  0
 14 15  4  0
 15 16  1  0
 16 17  4  0
 17 18  4  0
 18 19  4  0
 19 20  4  0
 20 21  4  0
 21 22  4  0
 22 23  4  0
 23 24  4  0
 24 25  4  0
 25 26  4  0
 26 27  4  0
 27 28  1  0
 28 29  4  0
 29 30  4  0
 30 31  4  0
 31 32  4  0
 32 33  4  0
 32 34  4  0
 34 35  4  0
 35 36  4  0
 36 37  4  0
 37 38  4  0
 38 39  4  0
 39 40  4  0
 40 41  4  0
 41 42  4  0
 42 43  4  0
 43 44  4  0
 44 45  4  0
 38 46  4  0
 46 47  4  0
 27 48  4  0
 48 49  4  0
 49 50  4  0
 50 51  4  0
 51 52  4  0
 52 53  4  0
 53 54  4  0
 54 55  4  0
 55 56  4  0
 56 57  4  0
 15 58  4  0
 13 59  4  0
 59 60  4  0
 60 61  4  0
 61 62  4  0
  6  1  4  0
 62  8  4  0
 61  4  4  0
 58 11  4  0
 62 12  4  0
 57 16  4  0
 22 17  4  0
 57 24  4  0
 55 26  4  0
 33 28  4  0
 45 36  4  0
 53 48  4  0
 47 30  4  0
 37 31  4  0
 45 40  4  0
  1 63  1  0
  2 64  1  0
  3 65  1  0
  6 66  1  0
  7 67  1  0
  9 68  1  0
 10 69  1  0
 14 70  1  0
 18 71  1  0
 19 72  1  0
 20 73  1  0
 21 74  1  0
 23 75  1  0
 25 76  1  0
 29 77  1  0
 33 78  1  0
 34 79  1  0
 35 80  1  0
 39 81  1  0
 41 82  1  0
 42 83  1  0
 43 84  1  0
 44 85  1  0
 46 86  1  0
 47 87  1  0
 49 88  1  0
 50 89  1  0
 51 90  1  0
 52 91  1  0
 54 92  1  0
 56 93  1  0
 58 94  1  0
 59 95  1  0
 60 96  1  0
M  END
