
     RDKit          3D

 96110  0  0  0  0  0  0  0  0999 V2000
   -8.4911   -0.3026   -3.3319 C   0  0  0  0  0  0  0  0  0  0  0  0
   -7.2397   -0.8680   -3.5166 C   0  0  0  0  0  0  0  0  0  0  0  0
   -6.3322   -0.9151   -2.4537 C   0  0  0  0  0  0  0  0  0  0  0  0
   -6.6402   -0.3989   -1.1678 C   0  0  0  0  0  0  0  0  0  0  0  0
   -7.9250    0.1744   -1.0099 C   0  0  0  0  0  0  0  0  0  0  0  0
   -8.8302    0.2152   -2.0854 C   0  0  0  0  0  0  0  0  0  0  0  0
   -8.3035    0.7069    0.2254 C   0  0  0  0  0  0  0  0  0  0  0  0
   -7.4397    0.6903    1.3235 C   0  0  0  0  0  0  0  0  0  0  0  0
   -7.8520    1.2349    2.5449 C   0  0  0  0  0  0  0  0  0  0  0  0
   -7.0052    1.2275    3.6499 C   0  0  0  0  0  0  0  0  0  0  0  0
   -5.7256    0.6745    3.5598 C   0  0  0  0  0  0  0  0  0  0  0  0
   -5.2845    0.1149    2.3315 C   0  0  0  0  0  0  0  0  0  0  0  0
   -3.9869   -0.4462    2.2443 C   0  0  0  0  0  0  0  0  0  0  0  0
   -3.1684   -0.4273    3.3968 C   0  0  0  0  0  0  0  0  0  0  0  0
   -3.6089    0.1243    4.5971 C   0  0  0  0  0  0  0  0  0  0  0  0
   -4.8823    0.6724    4.6772 C   0  0  0  0  0  0  0  0  0  0  0  0
   -3.5661   -0.9991    1.0118 C   0  0  0  0  0  0  0  0  0  0  0  0
   -2.2209   -1.6069    0.8254 C   0  0  0  0  0  0  0  0  0  0  0  0
   -2.0298   -3.0043    1.0736 C   0  0  0  0  0  0  0  0  0  0  0  0
   -3.0600   -3.8785    1.5019 C   0  0  0  0  0  0  0  0  0  0  0  0
   -2.8306   -5.2369    1.7324 C   0  0  0  0  0  0  0  0  0  0  0  0
   -1.5618   -5.7641    1.5420 C   0  0  0  0  0  0  0  0  0  0  0  0
   -0.5260   -4.9313    1.1242 C   0  0  0  0  0  0  0  0  0  0  0  0
   -0.7452   -3.5621    0.8892 C   0  0  0  0  0  0  0  0  0  0  0  0
    0.3127   -2.7456    0.4718 C   0  0  0  0  0  0  0  0  0  0  0  0
    0.1406   -1.3772    0.2256 C   0  0  0  0  0  0  0  0  0  0  0  0
    1.2327   -0.5922   -0.1898 C   0  0  0  0  0  0  0  0  0  0  0  0
    1.1301    0.7948   -0.4545 C   0  0  0  0  0  0  0  0  0  0  0  0
    2.2283    1.6152   -0.8732 C   0  0  0  0  0  0  0  0  0  0  0  0
    3.5792    1.0132   -1.0312 C   0  0  0  0  0  0  0  0  0  0  0  0
    4.4165    0.9649    0.1019 C   0  0  0  0  0  0  0  0  0  0  0  0
    5.7134    0.4083    0.0857 C   0  0  0  0  0  0  0  0  0  0  0  0
    6.1655   -0.1133   -1.1521 C   0  0  0  0  0  0  0  0  0  0  0  0
    7.4554   -0.6840   -1.2421 C   0  0  0  0  0  0  0  0  0  0  0  0
    8.2771   -0.7327   -0.1130 C   0  0  0  0  0  0  0  0  0  0  0  0
    7.8546   -0.2288    1.1200 C   0  0  0  0  0  0  0  0  0  0  0  0
    8.7162   -0.3038    2.2287 C   0  0  0  0  0  0  0  0  0  0  0  0
    8.3322    0.1860    3.4736 C   0  0  0  0  0  0  0  0  0  0  0  0
    7.0789    0.7570    3.6237 C   0  0  0  0  0  0  0  0  0  0  0  0
    6.2140    0.8365    2.5281 C   0  0  0  0  0  0  0  0  0  0  0  0
    6.5685    0.3496    1.2430 C   0  0  0  0  0  0  0  0  0  0  0  0
    7.9101   -1.2008   -2.4604 C   0  0  0  0  0  0  0  0  0  0  0  0
    7.1044   -1.1628   -3.5951 C   0  0  0  0  0  0  0  0  0  0  0  0
    5.8245   -0.6062   -3.5385 C   0  0  0  0  0  0  0  0  0  0  0  0
    5.3408   -0.0744   -2.3143 C   0  0  0  0  0  0  0  0  0  0  0  0
    4.0420    0.4881   -2.2604 C   0  0  0  0  0  0  0  0  0  0  0  0
    3.2652    0.4988   -3.4412 C   0  0  0  0  0  0  0  0  0  0  0  0
    3.7484   -0.0241   -4.6380 C   0  0  0  0  0  0  0  0  0  0  0  0
    5.0226   -0.5740   -4.6853 C   0  0  0  0  0  0  0  0  0  0  0  0
    2.0362    3.0113   -1.1260 C   0  0  0  0  0  0  0  0  0  0  0  0
    3.0684    3.8885   -1.5437 C   0  0  0  0  0  0  0  0  0  0  0  0
    2.8357    5.2447   -1.7834 C   0  0  0  0  0  0  0  0  0  0  0  0
    1.5620    5.7662   -1.6119 C   0  0  0  0  0  0  0  0  0  0  0  0
    0.5257    4.9311   -1.2006 C   0  0  0  0  0  0  0  0  0  0  0  0
    0.7479    3.5646   -0.9565 C   0  0  0  0  0  0  0  0  0  0  0  0
   -0.3107    2.7472   -0.5430 C   0  0  0  0  0  0  0  0  0  0  0  0
   -0.1369    1.3805   -0.2907 C   0  0  0  0  0  0  0  0  0  0  0  0
   -1.2284    0.5962    0.1266 C   0  0  0  0  0  0  0  0  0  0  0  0
   -1.1249   -0.7898    0.3955 C   0  0  0  0  0  0  0  0  0  0  0  0
   -4.4420   -0.9762   -0.0928 C   0  0  0  0  0  0  0  0  0  0  0  0
   -5.7412   -0.4252   -0.0421 C   0  0  0  0  0  0  0  0  0  0  0  0
   -6.1508    0.1232    1.1992 C   0  0  0  0  0  0  0  0  0  0  0  0
   -9.2022   -0.2636   -4.1524 H   0  0  0  0  0  0  0  0  0  0  0  0
   -6.9621   -1.2757   -4.4852 H   0  0  0  0  0  0  0  0  0  0  0  0
   -5.3670   -1.3706   -2.6565 H   0  0  0  0  0  0  0  0  0  0  0  0
   -9.8175    0.6554   -1.9582 H   0  0  0  0  0  0  0  0  0  0  0  0
   -9.2944    1.1453    0.3350 H   0  0  0  0  0  0  0  0  0  0  0  0
   -8.8422    1.6732    2.6498 H   0  0  0  0  0  0  0  0  0  0  0  0
   -7.3579    1.6587    4.5841 H   0  0  0  0  0  0  0  0  0  0  0  0
   -2.1649   -0.8488    3.3708 H   0  0  0  0  0  0  0  0  0  0  0  0
   -2.9571    0.1240    5.4666 H   0  0  0  0  0  0  0  0  0  0  0  0
   -5.2120    1.0984    5.6221 H   0  0  0  0  0  0  0  0  0  0  0  0
   -4.0692   -3.5043    1.6656 H   0  0  0  0  0  0  0  0  0  0  0  0
   -3.6464   -5.8757    2.0611 H   0  0  0  0  0  0  0  0  0  0  0  0
   -1.3768   -6.8201    1.7190 H   0  0  0  0  0  0  0  0  0  0  0  0
    0.4633   -5.3620    0.9819 H   0  0  0  0  0  0  0  0  0  0  0  0
    1.2996   -3.1869    0.3339 H   0  0  0  0  0  0  0  0  0  0  0  0
    2.1971   -1.0847   -0.3125 H   0  0  0  0  0  0  0  0  0  0  0  0
    4.0145    1.3831    1.0224 H   0  0  0  0  0  0  0  0  0  0  0  0
    9.2689   -1.1746   -0.1960 H   0  0  0  0  0  0  0  0  0  0  0  0
    9.7043   -0.7492    2.1293 H   0  0  0  0  0  0  0  0  0  0  0  0
    9.0105    0.1209    4.3196 H   0  0  0  0  0  0  0  0  0  0  0  0
    6.7650    1.1436    4.5897 H   0  0  0  0  0  0  0  0  0  0  0  0
    5.2439    1.2926    2.7050 H   0  0  0  0  0  0  0  0  0  0  0  0
    8.9015   -1.6418   -2.5394 H   0  0  0  0  0  0  0  0  0  0  0  0
    7.4893   -1.5744   -4.5255 H   0  0  0  0  0  0  0  0  0  0  0  0
    2.2619    0.9216   -3.4408 H   0  0  0  0  0  0  0  0  0  0  0  0
    3.1290   -0.0007   -5.5305 H   0  0  0  0  0  0  0  0  0  0  0  0
    5.3857   -0.9785   -5.6273 H   0  0  0  0  0  0  0  0  0  0  0  0
    4.0811    3.5180   -1.6926 H   0  0  0  0  0  0  0  0  0  0  0  0
    3.6521    5.8863   -2.1045 H   0  0  0  0  0  0  0  0  0  0  0  0
    1.3729    6.8200   -1.7968 H   0  0  0  0  0  0  0  0  0  0  0  0
   -0.4666    5.3587   -1.0707 H   0  0  0  0  0  0  0  0  0  0  0  0
   -1.2995    3.1869   -0.4142 H   0  0  0  0  0  0  0  0  0  0  0  0
   -2.1932    1.0883    0.2476 H   0  0  0  0  0  0  0  0  0  0  0  0
   -4.0706   -1.4119   -1.0180 H   0  0  0  0  0  0  0  0  0  0  0  0
  1  2  4  0
  2  3  4  0
  3  4  4  0
  4  5  4  0
  5  6  4  0
  5  7  4  0
  7  8  4  0
  8  9  4  0
  9 10  4  0
 10 11  4  0
 11 12  4  0
 12 13  4  0
 13 14  4  0
 14 15  4  0
 15 16  4  0
 13 17  4  0
 17 18  1  0
 18 19  4  0
 19 20  4  0
 20 21  4  0
 21 22  4  0
 22 23  4  0
 23 24  4  0
 24 25  4  0
 25 26  4  0
 26 27  4  0
 27 28  4  0
 28 29  4  0
 29 30  1  0
 30 31  4  0
 31 32  4  0
 32 33  4  0
 33 34  4  0
 34 35  4  0
 35 36  4  0
 36 37  4  0
 37 38  4  0
 38 39  4  0
 39 40  4  0
 40 41  4  0
 34 42  4  0
 42 43  4  0
 43 44  4  0
 44 45  4  0
 45 46  4  0
 46 47  4  0
 47 48  4  0
 48 49  4  0
 29 50  4  0
 50 51  4  0
 51 52  4  0
 52 53  4  0
 53 54  4  0
 54 55  4  0
 55 56  4  0
 56 57  4  0
 57 58  4  0
 58 59  4  0
 17 60  4  0
 60 61  4  0
 61 62  4  0
  6  1  4  0
 62  8  4  0
 61  4  4  0
 16 11  4  0
 59 18  4  0
 62 12  4  0
 24 19  4  0
 59 26  4  0
 57 28  4  0
 46 30  4  0
 55 50  4  0
 41 32  4  0
 49 44  4  0
 45 33  4  0
 41 36  4  0
  1 63  1  0
  2 64  1  0
  3 65  1  0
  6 66  1  0
  7 67  1  0
  9 68  1  0
 10 69  1  0
 14 70  1  0
 15 71  1  0
 16 72  1  0
 20 73  1  0
 21 74  1  0
 22 75  1  0
 23 76  1  0
 25 77  1  0
 27 78  1  0
 31 79  1  0
 35 80  1  0
 37 81  1  0
 38 82  1  0
 39 83  1  0
 40 84  1  0
 42 85  1  0
 43 86  1  0
 47 87  1  0
 48 88  1  0
 49 89  1  0
 51 90  1  0
 52 91  1  0
 53 92  1  0
 54 93  1  0
 56 94  1  0
 58 95  1  0
 60 96  1  0
M  END
