
     RDKit          3D

 68 76  0  0  0  0  0  0  0  0999 V2000
    8.1111    1.7796   -0.1325 C   0  0  0  0  0  0  0  0  0  0  0  0
    7.5938    1.5151   -1.3971 C   0  0  0  0  0  0  0  0  0  0  0  0
    6.3840    0.8310   -1.5274 C   0  0  0  0  0  0  0  0  0  0  0  0
    5.6752    0.4032   -0.3931 C   0  0  0  0  0  0  0  0  0  0  0  0
    4.4568   -0.2872   -0.5076 C   0  0  0  0  0  0  0  0  0  0  0  0
    3.7513   -0.7159    0.6288 C   0  0  0  0  0  0  0  0  0  0  0  0
    2.4711   -1.4449    0.4923 C   0  0  0  0  0  0  0  0  0  0  0  0
    2.4731   -2.8740    0.4035 C   0  0  0  0  0  0  0  0  0  0  0  0
    3.6487   -3.6664    0.4324 C   0  0  0  0  0  0  0  0  0  0  0  0
    3.6062   -5.0596    0.3430 C   0  0  0  0  0  0  0  0  0  0  0  0
    2.3848   -5.7050    0.2219 C   0  0  0  0  0  0  0  0  0  0  0  0
    1.2105   -4.9559    0.1904 C   0  0  0  0  0  0  0  0  0  0  0  0
    1.2407   -3.5527    0.2793 C   0  0  0  0  0  0  0  0  0  0  0  0
    0.0462   -2.8228    0.2451 C   0  0  0  0  0  0  0  0  0  0  0  0
    0.0285   -1.4243    0.3298 C   0  0  0  0  0  0  0  0  0  0  0  0
   -1.1957   -0.7290    0.2914 C   0  0  0  0  0  0  0  0  0  0  0  0
   -1.2859    0.6822    0.3691 C   0  0  0  0  0  0  0  0  0  0  0  0
   -2.5190    1.4120    0.3306 C   0  0  0  0  0  0  0  0  0  0  0  0
   -3.8012    0.6842    0.2062 C   0  0  0  0  0  0  0  0  0  0  0  0
   -4.3314    0.3786   -1.0580 C   0  0  0  0  0  0  0  0  0  0  0  0
   -5.5482   -0.3114   -1.1923 C   0  0  0  0  0  0  0  0  0  0  0  0
   -6.0794   -0.6194   -2.4552 C   0  0  0  0  0  0  0  0  0  0  0  0
   -7.2902   -1.3042   -2.5729 C   0  0  0  0  0  0  0  0  0  0  0  0
   -7.9855   -1.6897   -1.4306 C   0  0  0  0  0  0  0  0  0  0  0  0
   -7.4705   -1.3918   -0.1678 C   0  0  0  0  0  0  0  0  0  0  0  0
   -6.2535   -0.7040   -0.0323 C   0  0  0  0  0  0  0  0  0  0  0  0
   -5.7227   -0.3983    1.2298 C   0  0  0  0  0  0  0  0  0  0  0  0
   -4.5105    0.2865    1.3471 C   0  0  0  0  0  0  0  0  0  0  0  0
   -2.5180    2.8419    0.4122 C   0  0  0  0  0  0  0  0  0  0  0  0
   -3.6913    3.6374    0.3767 C   0  0  0  0  0  0  0  0  0  0  0  0
   -3.6447    5.0311    0.4598 C   0  0  0  0  0  0  0  0  0  0  0  0
   -2.4219    5.6741    0.5809 C   0  0  0  0  0  0  0  0  0  0  0  0
   -1.2499    4.9221    0.6178 C   0  0  0  0  0  0  0  0  0  0  0  0
   -1.2843    3.5188    0.5345 C   0  0  0  0  0  0  0  0  0  0  0  0
   -0.0916    2.7871    0.5719 C   0  0  0  0  0  0  0  0  0  0  0  0
   -0.0767    1.3887    0.4909 C   0  0  0  0  0  0  0  0  0  0  0  0
    1.1469    0.6935    0.5314 C   0  0  0  0  0  0  0  0  0  0  0  0
    1.2372   -0.7171    0.4531 C   0  0  0  0  0  0  0  0  0  0  0  0
    4.2837   -0.4406    1.8952 C   0  0  0  0  0  0  0  0  0  0  0  0
    5.4935    0.2454    2.0252 C   0  0  0  0  0  0  0  0  0  0  0  0
    6.2002    0.6725    0.8912 C   0  0  0  0  0  0  0  0  0  0  0  0
    7.4188    1.3610    1.0050 C   0  0  0  0  0  0  0  0  0  0  0  0
    9.0540    2.3107   -0.0299 H   0  0  0  0  0  0  0  0  0  0  0  0
    8.1316    1.8395   -2.2842 H   0  0  0  0  0  0  0  0  0  0  0  0
    5.9976    0.6318   -2.5247 H   0  0  0  0  0  0  0  0  0  0  0  0
    4.0451   -0.4984   -1.4935 H   0  0  0  0  0  0  0  0  0  0  0  0
    4.6271   -3.1984    0.5260 H   0  0  0  0  0  0  0  0  0  0  0  0
    4.5290   -5.6332    0.3684 H   0  0  0  0  0  0  0  0  0  0  0  0
    2.3435   -6.7884    0.1521 H   0  0  0  0  0  0  0  0  0  0  0  0
    0.2618   -5.4803    0.0949 H   0  0  0  0  0  0  0  0  0  0  0  0
   -0.8978   -3.3583    0.1490 H   0  0  0  0  0  0  0  0  0  0  0  0
   -2.1113   -1.3124    0.1964 H   0  0  0  0  0  0  0  0  0  0  0  0
   -3.7827    0.6856   -1.9472 H   0  0  0  0  0  0  0  0  0  0  0  0
   -5.5510   -0.3262   -3.3598 H   0  0  0  0  0  0  0  0  0  0  0  0
   -7.6888   -1.5345   -3.5573 H   0  0  0  0  0  0  0  0  0  0  0  0
   -8.9292   -2.2216   -1.5210 H   0  0  0  0  0  0  0  0  0  0  0  0
   -8.0282   -1.7005    0.7135 H   0  0  0  0  0  0  0  0  0  0  0  0
   -6.2492   -0.6922    2.1350 H   0  0  0  0  0  0  0  0  0  0  0  0
   -4.1179    0.5109    2.3371 H   0  0  0  0  0  0  0  0  0  0  0  0
   -4.6708    3.1720    0.2812 H   0  0  0  0  0  0  0  0  0  0  0  0
   -4.5657    5.6072    0.4287 H   0  0  0  0  0  0  0  0  0  0  0  0
   -2.3773    6.7577    0.6456 H   0  0  0  0  0  0  0  0  0  0  0  0
   -0.2995    5.4442    0.7118 H   0  0  0  0  0  0  0  0  0  0  0  0
    0.8535    3.3213    0.6657 H   0  0  0  0  0  0  0  0  0  0  0  0
    2.0625    1.2770    0.6265 H   0  0  0  0  0  0  0  0  0  0  0  0
    3.7540   -0.7633    2.7896 H   0  0  0  0  0  0  0  0  0  0  0  0
    5.8802    0.4427    3.0224 H   0  0  0  0  0  0  0  0  0  0  0  0
    7.8390    1.5755    1.9850 H   0  0  0  0  0  0  0  0  0  0  0  0
  1  2  4  0
  2  3  4  0
  3  4  4  0
  4  5  4  0
  5  6  4  0
  6  7  1  0
  7  8  4  0
  8  9  4  0
  9 10  4  0
 10 11  4  0
 11 12  4  0
 12 13  4  0
 13 14  4  0
 14 15  4  0
 15 16  4  0
 16 17  4  0
 17 18  4  0
 18 19  1  0
 19 20  4  0
 20 21  4  0
 21 22  4  0
 22 23  4  0
 23 24  4  0
 24 25  4  0
 25 26  4  0
 26 27  4  0
 27 28  4  0
 18 29  4  0
 29 30  4  0
 30 31  4  0
 31 32  4  0
 32 33  4  0
 33 34  4  0
 34 35  4  0
 35 36  4  0
 36 37  4  0
 37 38  4  0
  6 39  4  0
 39 40  4  0
 40 41  4  0
 41 42  4  0
 42  1  4  0
 41  4  4  0
 38  7  4  0
 13  8  4  0
 38 15  4  0
 36 17  4  0
 28 19  4  0
 34 29  4  0
 26 21  4  0
  1 43  1  0
  2 44  1  0
  3 45  1  0
  5 46  1  0
  9 47  1  0
 10 48  1  0
 11 49  1  0
 12 50  1  0
 14 51  1  0
 16 52  1  0
 20 53  1  0
 22 54  1  0
 23 55  1  0
 24 56  1  0
 25 57  1  0
 27 58  1  0
 28 59  1  0
 30 60  1  0
 31 61  1  0
 32 62  1  0
 33 63  1  0
 35 64  1  0
 37 65  1  0
 39 66  1  0
 40 67  1  0
 42 68  1  0
M  END
