
     RDKit          3D

 68 76  0  0  0  0  0  0  0  0999 V2000
    5.7314    1.6010   -2.7122 C   0  0  0  0  0  0  0  0  0  0  0  0
    4.6033    0.8319   -2.9628 C   0  0  0  0  0  0  0  0  0  0  0  0
    3.9749    0.1575   -1.9142 C   0  0  0  0  0  0  0  0  0  0  0  0
    4.4568    0.2329   -0.5861 C   0  0  0  0  0  0  0  0  0  0  0  0
    5.6095    1.0232   -0.3481 C   0  0  0  0  0  0  0  0  0  0  0  0
    6.2301    1.6962   -1.4137 C   0  0  0  0  0  0  0  0  0  0  0  0
    6.1272    1.1307    0.9515 C   0  0  0  0  0  0  0  0  0  0  0  0
    5.5262    0.4701    2.0194 C   0  0  0  0  0  0  0  0  0  0  0  0
    4.3951   -0.3084    1.8011 C   0  0  0  0  0  0  0  0  0  0  0  0
    3.8450   -0.4401    0.5117 C   0  0  0  0  0  0  0  0  0  0  0  0
    2.6318   -1.2832    0.3490 C   0  0  0  0  0  0  0  0  0  0  0  0
    2.7691   -2.6793    0.0630 C   0  0  0  0  0  0  0  0  0  0  0  0
    4.0166   -3.3366   -0.0874 C   0  0  0  0  0  0  0  0  0  0  0  0
    4.1054   -4.7015   -0.3696 C   0  0  0  0  0  0  0  0  0  0  0  0
    2.9482   -5.4524   -0.5105 C   0  0  0  0  0  0  0  0  0  0  0  0
    1.7063   -4.8362   -0.3697 C   0  0  0  0  0  0  0  0  0  0  0  0
    1.6039   -3.4629   -0.0859 C   0  0  0  0  0  0  0  0  0  0  0  0
    0.3437   -2.8666    0.0480 C   0  0  0  0  0  0  0  0  0  0  0  0
    0.1941   -1.5015    0.3271 C   0  0  0  0  0  0  0  0  0  0  0  0
   -1.0916   -0.9408    0.4511 C   0  0  0  0  0  0  0  0  0  0  0  0
   -1.3134    0.4300    0.7287 C   0  0  0  0  0  0  0  0  0  0  0  0
   -2.6113    1.0243    0.8571 C   0  0  0  0  0  0  0  0  0  0  0  0
   -3.8281    0.1844    0.7046 C   0  0  0  0  0  0  0  0  0  0  0  0
   -4.3570   -0.4353    1.8530 C   0  0  0  0  0  0  0  0  0  0  0  0
   -5.4999   -1.2237    1.7776 C   0  0  0  0  0  0  0  0  0  0  0  0
   -6.1342   -1.4061    0.5518 C   0  0  0  0  0  0  0  0  0  0  0  0
   -5.6369   -0.8064   -0.6150 C   0  0  0  0  0  0  0  0  0  0  0  0
   -6.2921   -0.9992   -1.8428 C   0  0  0  0  0  0  0  0  0  0  0  0
   -5.8136   -0.4114   -3.0130 C   0  0  0  0  0  0  0  0  0  0  0  0
   -4.6712    0.3762   -2.9717 C   0  0  0  0  0  0  0  0  0  0  0  0
   -4.0094    0.5783   -1.7590 C   0  0  0  0  0  0  0  0  0  0  0  0
   -4.4711   -0.0017   -0.5541 C   0  0  0  0  0  0  0  0  0  0  0  0
   -2.7459    2.4237    1.1319 C   0  0  0  0  0  0  0  0  0  0  0  0
   -3.9916    3.0874    1.2682 C   0  0  0  0  0  0  0  0  0  0  0  0
   -4.0775    4.4562    1.5328 C   0  0  0  0  0  0  0  0  0  0  0  0
   -2.9184    5.2052    1.6693 C   0  0  0  0  0  0  0  0  0  0  0  0
   -1.6783    4.5834    1.5404 C   0  0  0  0  0  0  0  0  0  0  0  0
   -1.5795    3.2064    1.2741 C   0  0  0  0  0  0  0  0  0  0  0  0
   -0.3209    2.6066    1.1468 C   0  0  0  0  0  0  0  0  0  0  0  0
   -0.1744    1.2395    0.8781 C   0  0  0  0  0  0  0  0  0  0  0  0
    1.1107    0.6787    0.7552 C   0  0  0  0  0  0  0  0  0  0  0  0
    1.3326   -0.6922    0.4807 C   0  0  0  0  0  0  0  0  0  0  0  0
    6.2250    2.1264   -3.5251 H   0  0  0  0  0  0  0  0  0  0  0  0
    4.2070    0.7529   -3.9716 H   0  0  0  0  0  0  0  0  0  0  0  0
    3.0924   -0.4360   -2.1475 H   0  0  0  0  0  0  0  0  0  0  0  0
    7.1152    2.3042   -1.2387 H   0  0  0  0  0  0  0  0  0  0  0  0
    7.0118    1.7350    1.1423 H   0  0  0  0  0  0  0  0  0  0  0  0
    5.9395    0.5620    3.0203 H   0  0  0  0  0  0  0  0  0  0  0  0
    3.9315   -0.8209    2.6426 H   0  0  0  0  0  0  0  0  0  0  0  0
    4.9479   -2.7816    0.0113 H   0  0  0  0  0  0  0  0  0  0  0  0
    5.0797   -5.1701   -0.4796 H   0  0  0  0  0  0  0  0  0  0  0  0
    3.0088   -6.5145   -0.7313 H   0  0  0  0  0  0  0  0  0  0  0  0
    0.8093   -5.4413   -0.4858 H   0  0  0  0  0  0  0  0  0  0  0  0
   -0.5477   -3.4821   -0.0705 H   0  0  0  0  0  0  0  0  0  0  0  0
   -1.9505   -1.5987    0.3213 H   0  0  0  0  0  0  0  0  0  0  0  0
   -3.8692   -0.2960    2.8166 H   0  0  0  0  0  0  0  0  0  0  0  0
   -5.8978   -1.6937    2.6732 H   0  0  0  0  0  0  0  0  0  0  0  0
   -7.0286   -2.0246    0.5135 H   0  0  0  0  0  0  0  0  0  0  0  0
   -7.1886   -1.6132   -1.8969 H   0  0  0  0  0  0  0  0  0  0  0  0
   -6.3336   -0.5694   -3.9539 H   0  0  0  0  0  0  0  0  0  0  0  0
   -4.2901    0.8367   -3.8794 H   0  0  0  0  0  0  0  0  0  0  0  0
   -3.1171    1.2021   -1.7640 H   0  0  0  0  0  0  0  0  0  0  0  0
   -4.9246    2.5362    1.1638 H   0  0  0  0  0  0  0  0  0  0  0  0
   -5.0509    4.9300    1.6290 H   0  0  0  0  0  0  0  0  0  0  0  0
   -2.9768    6.2706    1.8740 H   0  0  0  0  0  0  0  0  0  0  0  0
   -0.7792    5.1869    1.6482 H   0  0  0  0  0  0  0  0  0  0  0  0
    0.5716    3.2218    1.2578 H   0  0  0  0  0  0  0  0  0  0  0  0
    1.9693    1.3393    0.8740 H   0  0  0  0  0  0  0  0  0  0  0  0
  1  2  4  0
  2  3  4  0
  3  4  4  0
  4  5  4  0
  5  6  4  0
  5  7  4  0
  7  8  4  0
  8  9  4  0
  9 10  4  0
 10 11  1  0
 11 12  4  0
 12 13  4  0
 13 14  4  0
 14 15  4  0
 15 16  4  0
 16 17  4  0
 17 18  4  0
 18 19  4  0
 19 20  4  0
 20 21  4  0
 21 22  4  0
 22 23  1  0
 23 24  4  0
 24 25  4  0
 25 26  4  0
 26 27  4  0
 27 28  4  0
 28 29  4  0
 29 30  4  0
 30 31  4  0
 31 32  4  0
 22 33  4  0
 33 34  4  0
 34 35  4  0
 35 36  4  0
 36 37  4  0
 37 38  4  0
 38 39  4  0
 39 40  4  0
 40 41  4  0
 41 42  4  0
  6  1  4  0
 42 11  4  0
 10  4  4  0
 17 12  4  0
 42 19  4  0
 40 21  4  0
 32 23  4  0
 38 33  4  0
 32 27  4  0
  1 43  1  0
  2 44  1  0
  3 45  1  0
  6 46  1  0
  7 47  1  0
  8 48  1  0
  9 49  1  0
 13 50  1  0
 14 51  1  0
 15 52  1  0
 16 53  1  0
 18 54  1  0
 20 55  1  0
 24 56  1  0
 25 57  1  0
 26 58  1  0
 28 59  1  0
 29 60  1  0
 30 61  1  0
 31 62  1  0
 34 63  1  0
 35 64  1  0
 36 65  1  0
 37 66  1  0
 39 67  1  0
 41 68  1  0
M  END
