
     RDKit          3D

 80 90  0  0  0  0  0  0  0  0999 V2000
   -7.6951   -2.5397   -2.3376 C   0  0  0  0  0  0  0  0  0  0  0  0
   -7.7424   -1.2306   -1.8559 C   0  0  0  0  0  0  0  0  0  0  0  0
   -6.7029   -0.7190   -1.0605 C   0  0  0  0  0  0  0  0  0  0  0  0
   -6.7321    0.5946   -0.5675 C   0  0  0  0  0  0  0  0  0  0  0  0
   -5.6911    1.1089    0.2246 C   0  0  0  0  0  0  0  0  0  0  0  0
   -5.7526    2.4283    0.6986 C   0  0  0  0  0  0  0  0  0  0  0  0
   -4.7305    2.9579    1.4813 C   0  0  0  0  0  0  0  0  0  0  0  0
   -3.6296    2.1719    1.8014 C   0  0  0  0  0  0  0  0  0  0  0  0
   -3.5334    0.8425    1.3474 C   0  0  0  0  0  0  0  0  0  0  0  0
   -2.3294    0.0580    1.7289 C   0  0  0  0  0  0  0  0  0  0  0  0
   -2.3216   -0.6806    2.9559 C   0  0  0  0  0  0  0  0  0  0  0  0
   -3.4174   -0.7339    3.8537 C   0  0  0  0  0  0  0  0  0  0  0  0
   -3.3676   -1.4679    5.0411 C   0  0  0  0  0  0  0  0  0  0  0  0
   -2.2186   -2.1723    5.3683 C   0  0  0  0  0  0  0  0  0  0  0  0
   -1.1243   -2.1424    4.5067 C   0  0  0  0  0  0  0  0  0  0  0  0
   -1.1638   -1.4089    3.3076 C   0  0  0  0  0  0  0  0  0  0  0  0
   -0.0532   -1.4009    2.4555 C   0  0  0  0  0  0  0  0  0  0  0  0
   -0.0500   -0.6903    1.2481 C   0  0  0  0  0  0  0  0  0  0  0  0
    1.0849   -0.7189    0.4163 C   0  0  0  0  0  0  0  0  0  0  0  0
    1.1562   -0.0289   -0.8177 C   0  0  0  0  0  0  0  0  0  0  0  0
    2.2995   -0.0478   -1.6818 C   0  0  0  0  0  0  0  0  0  0  0  0
    3.4959   -0.8451   -1.3042 C   0  0  0  0  0  0  0  0  0  0  0  0
    4.5662   -0.2993   -0.5363 C   0  0  0  0  0  0  0  0  0  0  0  0
    4.5912    1.0374   -0.0716 C   0  0  0  0  0  0  0  0  0  0  0  0
    5.6591    1.5512    0.6840 C   0  0  0  0  0  0  0  0  0  0  0  0
    5.6674    2.8819    1.1346 C   0  0  0  0  0  0  0  0  0  0  0  0
    6.7357    3.3758    1.8850 C   0  0  0  0  0  0  0  0  0  0  0  0
    7.8088    2.5462    2.1946 C   0  0  0  0  0  0  0  0  0  0  0  0
    7.8144    1.2224    1.7526 C   0  0  0  0  0  0  0  0  0  0  0  0
    6.7459    0.7122    0.9958 C   0  0  0  0  0  0  0  0  0  0  0  0
    6.7351   -0.6154    0.5416 C   0  0  0  0  0  0  0  0  0  0  0  0
    5.6675   -1.1282   -0.2148 C   0  0  0  0  0  0  0  0  0  0  0  0
    5.6910   -2.4615   -0.6521 C   0  0  0  0  0  0  0  0  0  0  0  0
    4.6441   -2.9894   -1.4019 C   0  0  0  0  0  0  0  0  0  0  0  0
    3.5557   -2.1878   -1.7248 C   0  0  0  0  0  0  0  0  0  0  0  0
    2.2928    0.6861   -2.9112 C   0  0  0  0  0  0  0  0  0  0  0  0
    3.3852    0.7263   -3.8140 C   0  0  0  0  0  0  0  0  0  0  0  0
    3.3368    1.4563   -5.0039 C   0  0  0  0  0  0  0  0  0  0  0  0
    2.1922    2.1684   -5.3291 C   0  0  0  0  0  0  0  0  0  0  0  0
    1.1014    2.1507   -4.4625 C   0  0  0  0  0  0  0  0  0  0  0  0
    1.1392    1.4217   -3.2605 C   0  0  0  0  0  0  0  0  0  0  0  0
    0.0309    1.4233   -2.4046 C   0  0  0  0  0  0  0  0  0  0  0  0
    0.0251    0.7141   -1.1961 C   0  0  0  0  0  0  0  0  0  0  0  0
   -1.1100    0.7436   -0.3636 C   0  0  0  0  0  0  0  0  0  0  0  0
   -1.1830    0.0493    0.8684 C   0  0  0  0  0  0  0  0  0  0  0  0
   -4.5779    0.2955    0.5453 C   0  0  0  0  0  0  0  0  0  0  0  0
   -4.5650   -1.0280    0.0446 C   0  0  0  0  0  0  0  0  0  0  0  0
   -5.6040   -1.5422   -0.7496 C   0  0  0  0  0  0  0  0  0  0  0  0
   -5.5701   -2.8580   -1.2403 C   0  0  0  0  0  0  0  0  0  0  0  0
   -6.6094   -3.3532   -2.0292 C   0  0  0  0  0  0  0  0  0  0  0  0
   -8.5052   -2.9226   -2.9523 H   0  0  0  0  0  0  0  0  0  0  0  0
   -8.5991   -0.6093   -2.1062 H   0  0  0  0  0  0  0  0  0  0  0  0
   -7.5830    1.2298   -0.8079 H   0  0  0  0  0  0  0  0  0  0  0  0
   -6.6064    3.0595    0.4596 H   0  0  0  0  0  0  0  0  0  0  0  0
   -4.7935    3.9813    1.8420 H   0  0  0  0  0  0  0  0  0  0  0  0
   -2.8345    2.5943    2.4138 H   0  0  0  0  0  0  0  0  0  0  0  0
   -4.3391   -0.1988    3.6318 H   0  0  0  0  0  0  0  0  0  0  0  0
   -4.2289   -1.4862    5.7036 H   0  0  0  0  0  0  0  0  0  0  0  0
   -2.1728   -2.7462    6.2896 H   0  0  0  0  0  0  0  0  0  0  0  0
   -0.2321   -2.7027    4.7794 H   0  0  0  0  0  0  0  0  0  0  0  0
    0.8342   -1.9667    2.7381 H   0  0  0  0  0  0  0  0  0  0  0  0
    1.9446   -1.3014    0.7465 H   0  0  0  0  0  0  0  0  0  0  0  0
    3.7577    1.6994   -0.3029 H   0  0  0  0  0  0  0  0  0  0  0  0
    4.8380    3.5461    0.9010 H   0  0  0  0  0  0  0  0  0  0  0  0
    6.7276    4.4078    2.2251 H   0  0  0  0  0  0  0  0  0  0  0  0
    8.6420    2.9282    2.7785 H   0  0  0  0  0  0  0  0  0  0  0  0
    8.6621    0.5889    2.0032 H   0  0  0  0  0  0  0  0  0  0  0  0
    7.5767   -1.2624    0.7826 H   0  0  0  0  0  0  0  0  0  0  0  0
    6.5345   -3.1051   -0.4097 H   0  0  0  0  0  0  0  0  0  0  0  0
    4.6770   -4.0237   -1.7339 H   0  0  0  0  0  0  0  0  0  0  0  0
    2.7395   -2.6082   -2.3106 H   0  0  0  0  0  0  0  0  0  0  0  0
    4.3028    0.1834   -3.5939 H   0  0  0  0  0  0  0  0  0  0  0  0
    4.1962    1.4654   -5.6687 H   0  0  0  0  0  0  0  0  0  0  0  0
    2.1463    2.7386   -6.2527 H   0  0  0  0  0  0  0  0  0  0  0  0
    0.2122    2.7164   -4.7335 H   0  0  0  0  0  0  0  0  0  0  0  0
   -0.8536    1.9940   -2.6861 H   0  0  0  0  0  0  0  0  0  0  0  0
   -1.9694    1.3271   -0.6930 H   0  0  0  0  0  0  0  0  0  0  0  0
   -3.7237   -1.6795    0.2767 H   0  0  0  0  0  0  0  0  0  0  0  0
   -4.7285   -3.5080   -1.0097 H   0  0  0  0  0  0  0  0  0  0  0  0
   -6.5689   -4.3736   -2.4008 H   0  0  0  0  0  0  0  0  0  0  0  0
  1  2  4  0
  2  3  4  0
  3  4  4  0
  4  5  4  0
  5  6  4  0
  6  7  4  0
  7  8  4  0
  8  9  4  0
  9 10  1  0
 10 11  4  0
 11 12  4  0
 12 13  4  0
 13 14  4  0
 14 15  4  0
 15 16  4  0
 16 17  4  0
 17 18  4  0
 18 19  4  0
 19 20  4  0
 20 21  4  0
 21 22  1  0
 22 23  4  0
 23 24  4  0
 24 25  4  0
 25 26  4  0
 26 27  4  0
 27 28  4  0
 28 29  4  0
 29 30  4  0
 30 31  4  0
 31 32  4  0
 32 33  4  0
 33 34  4  0
 34 35  4  0
 21 36  4  0
 36 37  4  0
 37 38  4  0
 38 39  4  0
 39 40  4  0
 40 41  4  0
 41 42  4  0
 42 43  4  0
 43 44  4  0
 44 45  4  0
  9 46  4  0
 46 47  4  0
 47 48  4  0
 48 49  4  0
 49 50  4  0
 50  1  4  0
 48  3  4  0
 46  5  4  0
 45 10  4  0
 16 11  4  0
 45 18  4  0
 43 20  4  0
 35 22  4  0
 41 36  4  0
 32 23  4  0
 30 25  4  0
  1 51  1  0
  2 52  1  0
  4 53  1  0
  6 54  1  0
  7 55  1  0
  8 56  1  0
 12 57  1  0
 13 58  1  0
 14 59  1  0
 15 60  1  0
 17 61  1  0
 19 62  1  0
 24 63  1  0
 26 64  1  0
 27 65  1  0
 28 66  1  0
 29 67  1  0
 31 68  1  0
 33 69  1  0
 34 70  1  0
 35 71  1  0
 37 72  1  0
 38 73  1  0
 39 74  1  0
 40 75  1  0
 42 76  1  0
 44 77  1  0
 47 78  1  0
 49 79  1  0
 50 80  1  0
M  END
