
     RDKit          3D

 80 90  0  0  0  0  0  0  0  0999 V2000
   10.3187    1.0950    2.1061 C   0  0  0  0  0  0  0  0  0  0  0  0
    9.9366   -0.0815    2.7431 C   0  0  0  0  0  0  0  0  0  0  0  0
    8.7121   -0.6755    2.4332 C   0  0  0  0  0  0  0  0  0  0  0  0
    7.8541   -0.0999    1.4814 C   0  0  0  0  0  0  0  0  0  0  0  0
    6.6190   -0.6861    1.1585 C   0  0  0  0  0  0  0  0  0  0  0  0
    5.7618   -0.1098    0.2067 C   0  0  0  0  0  0  0  0  0  0  0  0
    4.5261   -0.6965   -0.1154 C   0  0  0  0  0  0  0  0  0  0  0  0
    3.6680   -0.1176   -1.0644 C   0  0  0  0  0  0  0  0  0  0  0  0
    2.3660   -0.7421   -1.3848 C   0  0  0  0  0  0  0  0  0  0  0  0
    2.2803   -1.7136   -2.4327 C   0  0  0  0  0  0  0  0  0  0  0  0
    3.3881   -2.1387   -3.2092 C   0  0  0  0  0  0  0  0  0  0  0  0
    3.2609   -3.0907   -4.2234 C   0  0  0  0  0  0  0  0  0  0  0  0
    2.0200   -3.6481   -4.4929 C   0  0  0  0  0  0  0  0  0  0  0  0
    0.9108   -3.2519   -3.7485 C   0  0  0  0  0  0  0  0  0  0  0  0
    1.0263   -2.2941   -2.7253 C   0  0  0  0  0  0  0  0  0  0  0  0
   -0.1040   -1.9120   -1.9921 C   0  0  0  0  0  0  0  0  0  0  0  0
   -0.0351   -0.9633   -0.9631 C   0  0  0  0  0  0  0  0  0  0  0  0
   -1.1958   -0.6065   -0.2497 C   0  0  0  0  0  0  0  0  0  0  0  0
   -1.1967    0.3427    0.8017 C   0  0  0  0  0  0  0  0  0  0  0  0
   -2.3643    0.7226    1.5415 C   0  0  0  0  0  0  0  0  0  0  0  0
   -3.6701    0.1075    1.2183 C   0  0  0  0  0  0  0  0  0  0  0  0
   -4.5215    0.6921    0.2664 C   0  0  0  0  0  0  0  0  0  0  0  0
   -5.7627    0.1167   -0.0562 C   0  0  0  0  0  0  0  0  0  0  0  0
   -6.6156    0.7004   -1.0078 C   0  0  0  0  0  0  0  0  0  0  0  0
   -7.8552    0.1236   -1.3320 C   0  0  0  0  0  0  0  0  0  0  0  0
   -8.7091    0.7060   -2.2837 C   0  0  0  0  0  0  0  0  0  0  0  0
   -9.9373    0.1204   -2.5956 C   0  0  0  0  0  0  0  0  0  0  0  0
  -10.3276   -1.0544   -1.9604 C   0  0  0  0  0  0  0  0  0  0  0  0
   -9.4907   -1.6448   -1.0122 C   0  0  0  0  0  0  0  0  0  0  0  0
   -8.2517   -1.0676   -0.6874 C   0  0  0  0  0  0  0  0  0  0  0  0
   -7.3993   -1.6502    0.2652 C   0  0  0  0  0  0  0  0  0  0  0  0
   -6.1604   -1.0730    0.5890 C   0  0  0  0  0  0  0  0  0  0  0  0
   -5.3101   -1.6557    1.5410 C   0  0  0  0  0  0  0  0  0  0  0  0
   -4.0801   -1.0720    1.8524 C   0  0  0  0  0  0  0  0  0  0  0  0
   -2.2743    1.6926    2.5912 C   0  0  0  0  0  0  0  0  0  0  0  0
   -3.3796    2.1236    3.3680 C   0  0  0  0  0  0  0  0  0  0  0  0
   -3.2466    3.0734    4.3839 C   0  0  0  0  0  0  0  0  0  0  0  0
   -2.0022    3.6223    4.6556 C   0  0  0  0  0  0  0  0  0  0  0  0
   -0.8956    3.2207    3.9108 C   0  0  0  0  0  0  0  0  0  0  0  0
   -1.0175    2.2661    2.8856 C   0  0  0  0  0  0  0  0  0  0  0  0
    0.1106    1.8814    2.1516 C   0  0  0  0  0  0  0  0  0  0  0  0
    0.0370    0.9354    1.1212 C   0  0  0  0  0  0  0  0  0  0  0  0
    1.1966    0.5799    0.4074 C   0  0  0  0  0  0  0  0  0  0  0  0
    1.1974   -0.3677   -0.6446 C   0  0  0  0  0  0  0  0  0  0  0  0
    4.0655    1.0674   -1.6962 C   0  0  0  0  0  0  0  0  0  0  0  0
    5.2917    1.6606   -1.3875 C   0  0  0  0  0  0  0  0  0  0  0  0
    6.1490    1.0836   -0.4383 C   0  0  0  0  0  0  0  0  0  0  0  0
    7.3841    1.6699   -0.1163 C   0  0  0  0  0  0  0  0  0  0  0  0
    8.2418    1.0936    0.8353 C   0  0  0  0  0  0  0  0  0  0  0  0
    9.4771    1.6793    1.1583 C   0  0  0  0  0  0  0  0  0  0  0  0
   11.2716    1.5594    2.3458 H   0  0  0  0  0  0  0  0  0  0  0  0
   10.5907   -0.5382    3.4813 H   0  0  0  0  0  0  0  0  0  0  0  0
    8.4311   -1.5952    2.9415 H   0  0  0  0  0  0  0  0  0  0  0  0
    6.3199   -1.6065    1.6570 H   0  0  0  0  0  0  0  0  0  0  0  0
    4.2193   -1.6177    0.3782 H   0  0  0  0  0  0  0  0  0  0  0  0
    4.3789   -1.7256   -3.0284 H   0  0  0  0  0  0  0  0  0  0  0  0
    4.1333   -3.3919   -4.7974 H   0  0  0  0  0  0  0  0  0  0  0  0
    1.9129   -4.3896   -5.2798 H   0  0  0  0  0  0  0  0  0  0  0  0
   -0.0542   -3.7011   -3.9751 H   0  0  0  0  0  0  0  0  0  0  0  0
   -1.0657   -2.3665   -2.2286 H   0  0  0  0  0  0  0  0  0  0  0  0
   -2.1333   -1.0882   -0.5271 H   0  0  0  0  0  0  0  0  0  0  0  0
   -4.2048    1.6089   -0.2291 H   0  0  0  0  0  0  0  0  0  0  0  0
   -6.3105    1.6198   -1.5045 H   0  0  0  0  0  0  0  0  0  0  0  0
   -8.4217    1.6248   -2.7903 H   0  0  0  0  0  0  0  0  0  0  0  0
  -10.5878    0.5824   -3.3338 H   0  0  0  0  0  0  0  0  0  0  0  0
  -11.2833   -1.5123   -2.2013 H   0  0  0  0  0  0  0  0  0  0  0  0
   -9.8135   -2.5628   -0.5262 H   0  0  0  0  0  0  0  0  0  0  0  0
   -7.7057   -2.5685    0.7627 H   0  0  0  0  0  0  0  0  0  0  0  0
   -5.5991   -2.5722    2.0507 H   0  0  0  0  0  0  0  0  0  0  0  0
   -3.4379   -1.5430    2.5942 H   0  0  0  0  0  0  0  0  0  0  0  0
   -4.3731    1.7174    3.1862 H   0  0  0  0  0  0  0  0  0  0  0  0
   -4.1178    3.3794    4.9573 H   0  0  0  0  0  0  0  0  0  0  0  0
   -1.8902    4.3618    5.4437 H   0  0  0  0  0  0  0  0  0  0  0  0
    0.0726    3.6629    4.1375 H   0  0  0  0  0  0  0  0  0  0  0  0
    1.0740    2.3318    2.3885 H   0  0  0  0  0  0  0  0  0  0  0  0
    2.1339    1.0616    0.6854 H   0  0  0  0  0  0  0  0  0  0  0  0
    3.4157    1.5353   -2.4332 H   0  0  0  0  0  0  0  0  0  0  0  0
    5.5716    2.5807   -1.8959 H   0  0  0  0  0  0  0  0  0  0  0  0
    7.6834    2.5905   -0.6140 H   0  0  0  0  0  0  0  0  0  0  0  0
    9.7933    2.5990    0.6713 H   0  0  0  0  0  0  0  0  0  0  0  0
  1  2  4  0
  2  3  4  0
  3  4  4  0
  4  5  4  0
  5  6  4  0
  6  7  4  0
  7  8  4  0
  8  9  1  0
  9 10  4  0
 10 11  4  0
 11 12  4  0
 12 13  4  0
 13 14  4  0
 14 15  4  0
 15 16  4  0
 16 17  4  0
 17 18  4  0
 18 19  4  0
 19 20  4  0
 20 21  1  0
 21 22  4  0
 22 23  4  0
 23 24  4  0
 24 25  4  0
 25 26  4  0
 26 27  4  0
 27 28  4  0
 28 29  4  0
 29 30  4  0
 30 31  4  0
 31 32  4  0
 32 33  4  0
 33 34  4  0
 20 35  4  0
 35 36  4  0
 36 37  4  0
 37 38  4  0
 38 39  4  0
 39 40  4  0
 40 41  4  0
 41 42  4  0
 42 43  4  0
 43 44  4  0
  8 45  4  0
 45 46  4  0
 46 47  4  0
 47 48  4  0
 48 49  4  0
 49 50  4  0
 50  1  4  0
 49  4  4  0
 47  6  4  0
 44  9  4  0
 15 10  4  0
 44 17  4  0
 42 19  4  0
 34 21  4  0
 40 35  4  0
 32 23  4  0
 30 25  4  0
  1 51  1  0
  2 52  1  0
  3 53  1  0
  5 54  1  0
  7 55  1  0
 11 56  1  0
 12 57  1  0
 13 58  1  0
 14 59  1  0
 16 60  1  0
 18 61  1  0
 22 62  1  0
 24 63  1  0
 26 64  1  0
 27 65  1  0
 28 66  1  0
 29 67  1  0
 31 68  1  0
 33 69  1  0
 34 70  1  0
 36 71  1  0
 37 72  1  0
 38 73  1  0
 39 74  1  0
 41 75  1  0
 43 76  1  0
 45 77  1  0
 46 78  1  0
 48 79  1  0
 50 80  1  0
M  END
