
     RDKit          3D

 80 90  0  0  0  0  0  0  0  0999 V2000
   10.2141    1.9857    0.6698 C   0  0  0  0  0  0  0  0  0  0  0  0
    9.5749    0.7468    0.6020 C   0  0  0  0  0  0  0  0  0  0  0  0
    8.2501    0.6451    0.1456 C   0  0  0  0  0  0  0  0  0  0  0  0
    7.5939   -0.5948    0.0710 C   0  0  0  0  0  0  0  0  0  0  0  0
    6.2695   -0.6957   -0.3858 C   0  0  0  0  0  0  0  0  0  0  0  0
    5.6150   -1.9346   -0.4612 C   0  0  0  0  0  0  0  0  0  0  0  0
    4.2977   -2.0199   -0.9174 C   0  0  0  0  0  0  0  0  0  0  0  0
    3.6028   -0.8685   -1.3084 C   0  0  0  0  0  0  0  0  0  0  0  0
    2.2064   -0.9563   -1.7889 C   0  0  0  0  0  0  0  0  0  0  0  0
    1.9454   -1.1547   -3.1828 C   0  0  0  0  0  0  0  0  0  0  0  0
    2.9578   -1.2737   -4.1687 C   0  0  0  0  0  0  0  0  0  0  0  0
    2.6589   -1.4657   -5.5197 C   0  0  0  0  0  0  0  0  0  0  0  0
    1.3359   -1.5445   -5.9276 C   0  0  0  0  0  0  0  0  0  0  0  0
    0.3169   -1.4315   -4.9842 C   0  0  0  0  0  0  0  0  0  0  0  0
    0.6055   -1.2380   -3.6216 C   0  0  0  0  0  0  0  0  0  0  0  0
   -0.4374   -1.1260   -2.6940 C   0  0  0  0  0  0  0  0  0  0  0  0
   -0.1974   -0.9293   -1.3277 C   0  0  0  0  0  0  0  0  0  0  0  0
   -1.2764   -0.8189   -0.4295 C   0  0  0  0  0  0  0  0  0  0  0  0
   -1.1074   -0.6139    0.9616 C   0  0  0  0  0  0  0  0  0  0  0  0
   -2.1900   -0.4939    1.8936 C   0  0  0  0  0  0  0  0  0  0  0  0
   -3.5863   -0.5880    1.4141 C   0  0  0  0  0  0  0  0  0  0  0  0
   -4.2512   -1.8203    1.3877 C   0  0  0  0  0  0  0  0  0  0  0  0
   -5.5684   -1.9077    0.9314 C   0  0  0  0  0  0  0  0  0  0  0  0
   -6.2522   -0.7647    0.4899 C   0  0  0  0  0  0  0  0  0  0  0  0
   -7.5763   -0.8379    0.0271 C   0  0  0  0  0  0  0  0  0  0  0  0
   -8.2609    0.3059   -0.4163 C   0  0  0  0  0  0  0  0  0  0  0  0
   -9.5847    0.2334   -0.8807 C   0  0  0  0  0  0  0  0  0  0  0  0
  -10.2519    1.3786   -1.3182 C   0  0  0  0  0  0  0  0  0  0  0  0
   -9.6054    2.6104   -1.2963 C   0  0  0  0  0  0  0  0  0  0  0  0
   -8.2901    2.6987   -0.8378 C   0  0  0  0  0  0  0  0  0  0  0  0
   -7.6045    1.5552   -0.3950 C   0  0  0  0  0  0  0  0  0  0  0  0
   -6.2803    1.6278    0.0685 C   0  0  0  0  0  0  0  0  0  0  0  0
   -5.5958    0.4837    0.5111 C   0  0  0  0  0  0  0  0  0  0  0  0
   -4.2709    0.5567    0.9741 C   0  0  0  0  0  0  0  0  0  0  0  0
   -1.9288   -0.2828    3.2857 C   0  0  0  0  0  0  0  0  0  0  0  0
   -2.9412   -0.1479    4.2696 C   0  0  0  0  0  0  0  0  0  0  0  0
   -2.6420    0.0572    5.6186 C   0  0  0  0  0  0  0  0  0  0  0  0
   -1.3188    0.1341    6.0267 C   0  0  0  0  0  0  0  0  0  0  0  0
   -0.2999    0.0066    5.0850 C   0  0  0  0  0  0  0  0  0  0  0  0
   -0.5889   -0.1995    3.7243 C   0  0  0  0  0  0  0  0  0  0  0  0
    0.4540   -0.3220    2.7981 C   0  0  0  0  0  0  0  0  0  0  0  0
    0.2138   -0.5252    1.4328 C   0  0  0  0  0  0  0  0  0  0  0  0
    1.2928   -0.6391    0.5351 C   0  0  0  0  0  0  0  0  0  0  0  0
    1.1238   -0.8410   -0.8564 C   0  0  0  0  0  0  0  0  0  0  0  0
    4.2578    0.3716   -1.2343 C   0  0  0  0  0  0  0  0  0  0  0  0
    5.5831    0.4726   -0.7778 C   0  0  0  0  0  0  0  0  0  0  0  0
    6.2390    1.7127   -0.7036 C   0  0  0  0  0  0  0  0  0  0  0  0
    7.5638    1.8142   -0.2470 C   0  0  0  0  0  0  0  0  0  0  0  0
    8.2211    3.0537   -0.1728 C   0  0  0  0  0  0  0  0  0  0  0  0
    9.5376    3.1382    0.2827 C   0  0  0  0  0  0  0  0  0  0  0  0
   11.2397    2.0495    1.0246 H   0  0  0  0  0  0  0  0  0  0  0  0
   10.1207   -0.1426    0.9089 H   0  0  0  0  0  0  0  0  0  0  0  0
    8.1236   -1.4964    0.3733 H   0  0  0  0  0  0  0  0  0  0  0  0
    6.1272   -2.8475   -0.1650 H   0  0  0  0  0  0  0  0  0  0  0  0
    3.8121   -2.9927   -0.9675 H   0  0  0  0  0  0  0  0  0  0  0  0
    4.0086   -1.2155   -3.8898 H   0  0  0  0  0  0  0  0  0  0  0  0
    3.4624   -1.5518   -6.2464 H   0  0  0  0  0  0  0  0  0  0  0  0
    1.0948   -1.6928   -6.9766 H   0  0  0  0  0  0  0  0  0  0  0  0
   -0.7152   -1.4955   -5.3236 H   0  0  0  0  0  0  0  0  0  0  0  0
   -1.4668   -1.1915   -3.0456 H   0  0  0  0  0  0  0  0  0  0  0  0
   -2.2858   -0.8943   -0.8334 H   0  0  0  0  0  0  0  0  0  0  0  0
   -3.7423   -2.7213    1.7249 H   0  0  0  0  0  0  0  0  0  0  0  0
   -6.0570   -2.8796    0.9239 H   0  0  0  0  0  0  0  0  0  0  0  0
   -8.0834   -1.8009    0.0116 H   0  0  0  0  0  0  0  0  0  0  0  0
  -10.1076   -0.7201   -0.9044 H   0  0  0  0  0  0  0  0  0  0  0  0
  -11.2762    1.3076   -1.6750 H   0  0  0  0  0  0  0  0  0  0  0  0
  -10.1237    3.5036   -1.6355 H   0  0  0  0  0  0  0  0  0  0  0  0
   -7.8014    3.6705   -0.8276 H   0  0  0  0  0  0  0  0  0  0  0  0
   -5.7733    2.5910    0.0841 H   0  0  0  0  0  0  0  0  0  0  0  0
   -3.7568    1.5167    0.9944 H   0  0  0  0  0  0  0  0  0  0  0  0
   -3.9921   -0.2010    3.9905 H   0  0  0  0  0  0  0  0  0  0  0  0
   -3.4455    0.1560    6.3436 H   0  0  0  0  0  0  0  0  0  0  0  0
   -1.0774    0.2933    7.0741 H   0  0  0  0  0  0  0  0  0  0  0  0
    0.7323    0.0706    5.4240 H   0  0  0  0  0  0  0  0  0  0  0  0
    1.4834   -0.2556    3.1496 H   0  0  0  0  0  0  0  0  0  0  0  0
    2.3022   -0.5652    0.9392 H   0  0  0  0  0  0  0  0  0  0  0  0
    3.7205    1.2687   -1.5389 H   0  0  0  0  0  0  0  0  0  0  0  0
    5.7092    2.6140   -1.0069 H   0  0  0  0  0  0  0  0  0  0  0  0
    7.7094    3.9660   -0.4715 H   0  0  0  0  0  0  0  0  0  0  0  0
   10.0335    4.1040    0.3343 H   0  0  0  0  0  0  0  0  0  0  0  0
  1  2  4  0
  2  3  4  0
  3  4  4  0
  4  5  4  0
  5  6  4  0
  6  7  4  0
  7  8  4  0
  8  9  1  0
  9 10  4  0
 10 11  4  0
 11 12  4  0
 12 13  4  0
 13 14  4  0
 14 15  4  0
 15 16  4  0
 16 17  4  0
 17 18  4  0
 18 19  4  0
 19 20  4  0
 20 21  1  0
 21 22  4  0
 22 23  4  0
 23 24  4  0
 24 25  4  0
 25 26  4  0
 26 27  4  0
 27 28  4  0
 28 29  4  0
 29 30  4  0
 30 31  4  0
 31 32  4  0
 32 33  4  0
 33 34  4  0
 20 35  4  0
 35 36  4  0
 36 37  4  0
 37 38  4  0
 38 39  4  0
 39 40  4  0
 40 41  4  0
 41 42  4  0
 42 43  4  0
 43 44  4  0
  8 45  4  0
 45 46  4  0
 46 47  4  0
 47 48  4  0
 48 49  4  0
 49 50  4  0
 50  1  4  0
 48  3  4  0
 46  5  4  0
 44  9  4  0
 15 10  4  0
 44 17  4  0
 42 19  4  0
 34 21  4  0
 40 35  4  0
 33 24  4  0
 31 26  4  0
  1 51  1  0
  2 52  1  0
  4 53  1  0
  6 54  1  0
  7 55  1  0
 11 56  1  0
 12 57  1  0
 13 58  1  0
 14 59  1  0
 16 60  1  0
 18 61  1  0
 22 62  1  0
 23 63  1  0
 25 64  1  0
 27 65  1  0
 28 66  1  0
 29 67  1  0
 30 68  1  0
 32 69  1  0
 34 70  1  0
 36 71  1  0
 37 72  1  0
 38 73  1  0
 39 74  1  0
 41 75  1  0
 43 76  1  0
 45 77  1  0
 47 78  1  0
 49 79  1  0
 50 80  1  0
M  END
