
     RDKit          3D

 80 90  0  0  0  0  0  0  0  0999 V2000
   -3.7619    3.6468    1.7769 C   0  0  0  0  0  0  0  0  0  0  0  0
   -2.7017    2.7947    2.0358 C   0  0  0  0  0  0  0  0  0  0  0  0
   -2.7460    1.4750    1.5755 C   0  0  0  0  0  0  0  0  0  0  0  0
   -3.8232    0.9633    0.8052 C   0  0  0  0  0  0  0  0  0  0  0  0
   -4.9511    1.8118    0.7061 C   0  0  0  0  0  0  0  0  0  0  0  0
   -4.8900    3.1515    1.1303 C   0  0  0  0  0  0  0  0  0  0  0  0
   -6.1622    1.2939    0.2593 C   0  0  0  0  0  0  0  0  0  0  0  0
   -6.3208   -0.0855    0.1760 C   0  0  0  0  0  0  0  0  0  0  0  0
   -7.6160   -0.6247    0.0778 C   0  0  0  0  0  0  0  0  0  0  0  0
   -7.8324   -1.9934    0.2024 C   0  0  0  0  0  0  0  0  0  0  0  0
   -6.7577   -2.8283    0.4587 C   0  0  0  0  0  0  0  0  0  0  0  0
   -5.4651   -2.2974    0.5108 C   0  0  0  0  0  0  0  0  0  0  0  0
   -5.1866   -0.9261    0.2736 C   0  0  0  0  0  0  0  0  0  0  0  0
   -3.8765   -0.3450    0.2176 C   0  0  0  0  0  0  0  0  0  0  0  0
   -2.6258   -1.0880   -0.3598 C   0  0  0  0  0  0  0  0  0  0  0  0
   -2.6819   -2.3916   -0.9565 C   0  0  0  0  0  0  0  0  0  0  0  0
   -3.7615   -2.8965   -1.7277 C   0  0  0  0  0  0  0  0  0  0  0  0
   -3.8038   -4.2108   -2.2035 C   0  0  0  0  0  0  0  0  0  0  0  0
   -2.7422   -5.0647   -1.9555 C   0  0  0  0  0  0  0  0  0  0  0  0
   -1.6149   -4.5764   -1.3026 C   0  0  0  0  0  0  0  0  0  0  0  0
   -1.5546   -3.2413   -0.8643 C   0  0  0  0  0  0  0  0  0  0  0  0
   -0.3453   -2.7283   -0.4074 C   0  0  0  0  0  0  0  0  0  0  0  0
   -0.1861   -1.3495   -0.3073 C   0  0  0  0  0  0  0  0  0  0  0  0
    1.1077   -0.8079   -0.1877 C   0  0  0  0  0  0  0  0  0  0  0  0
    1.3697    0.5775   -0.2878 C   0  0  0  0  0  0  0  0  0  0  0  0
    2.6741    1.1609   -0.1764 C   0  0  0  0  0  0  0  0  0  0  0  0
    3.8548    0.2882    0.1043 C   0  0  0  0  0  0  0  0  0  0  0  0
    4.6034   -0.2672   -0.9837 C   0  0  0  0  0  0  0  0  0  0  0  0
    4.2930   -0.0455   -2.3489 C   0  0  0  0  0  0  0  0  0  0  0  0
    5.0492   -0.6055   -3.3807 C   0  0  0  0  0  0  0  0  0  0  0  0
    6.1403   -1.4063   -3.0789 C   0  0  0  0  0  0  0  0  0  0  0  0
    6.4714   -1.6455   -1.7469 C   0  0  0  0  0  0  0  0  0  0  0  0
    5.7179   -1.0873   -0.6994 C   0  0  0  0  0  0  0  0  0  0  0  0
    6.0719   -1.3445    0.6308 C   0  0  0  0  0  0  0  0  0  0  0  0
    5.3488   -0.8129    1.7056 C   0  0  0  0  0  0  0  0  0  0  0  0
    5.7391   -1.1011    3.0252 C   0  0  0  0  0  0  0  0  0  0  0  0
    5.0365   -0.5864    4.1126 C   0  0  0  0  0  0  0  0  0  0  0  0
    3.9330    0.2245    3.8936 C   0  0  0  0  0  0  0  0  0  0  0  0
    3.5361    0.5184    2.5873 C   0  0  0  0  0  0  0  0  0  0  0  0
    4.2283    0.0115    1.4592 C   0  0  0  0  0  0  0  0  0  0  0  0
    2.8530    2.5733   -0.3341 C   0  0  0  0  0  0  0  0  0  0  0  0
    4.1065    3.2273   -0.2336 C   0  0  0  0  0  0  0  0  0  0  0  0
    4.2369    4.6078   -0.4000 C   0  0  0  0  0  0  0  0  0  0  0  0
    3.1161    5.3780   -0.6720 C   0  0  0  0  0  0  0  0  0  0  0  0
    1.8687    4.7661   -0.7754 C   0  0  0  0  0  0  0  0  0  0  0  0
    1.7252    3.3774   -0.6098 C   0  0  0  0  0  0  0  0  0  0  0  0
    0.4604    2.7867   -0.7151 C   0  0  0  0  0  0  0  0  0  0  0  0
    0.2701    1.4086   -0.5500 C   0  0  0  0  0  0  0  0  0  0  0  0
   -1.0235    0.8570   -0.6325 C   0  0  0  0  0  0  0  0  0  0  0  0
   -1.3125   -0.5114   -0.4057 C   0  0  0  0  0  0  0  0  0  0  0  0
   -3.7362    4.6758    2.1238 H   0  0  0  0  0  0  0  0  0  0  0  0
   -1.8374    3.1437    2.5947 H   0  0  0  0  0  0  0  0  0  0  0  0
   -1.9157    0.8236    1.8454 H   0  0  0  0  0  0  0  0  0  0  0  0
   -5.7493    3.8079    1.0090 H   0  0  0  0  0  0  0  0  0  0  0  0
   -7.0312    1.9437    0.1770 H   0  0  0  0  0  0  0  0  0  0  0  0
   -8.4781    0.0286   -0.0412 H   0  0  0  0  0  0  0  0  0  0  0  0
   -8.8402   -2.3957    0.1518 H   0  0  0  0  0  0  0  0  0  0  0  0
   -6.9131   -3.8915    0.6210 H   0  0  0  0  0  0  0  0  0  0  0  0
   -4.6541   -2.9795    0.7629 H   0  0  0  0  0  0  0  0  0  0  0  0
   -4.5942   -2.2438   -1.9861 H   0  0  0  0  0  0  0  0  0  0  0  0
   -4.6674   -4.5552   -2.7659 H   0  0  0  0  0  0  0  0  0  0  0  0
   -2.7671   -6.0901   -2.3130 H   0  0  0  0  0  0  0  0  0  0  0  0
   -0.7557   -5.2340   -1.1865 H   0  0  0  0  0  0  0  0  0  0  0  0
    0.5230   -3.3796   -0.3267 H   0  0  0  0  0  0  0  0  0  0  0  0
    1.9427   -1.4964   -0.0610 H   0  0  0  0  0  0  0  0  0  0  0  0
    3.4442    0.5765   -2.6283 H   0  0  0  0  0  0  0  0  0  0  0  0
    4.7807   -0.4119   -4.4159 H   0  0  0  0  0  0  0  0  0  0  0  0
    6.7341   -1.8444   -3.8764 H   0  0  0  0  0  0  0  0  0  0  0  0
    7.3305   -2.2775   -1.5309 H   0  0  0  0  0  0  0  0  0  0  0  0
    6.9343   -1.9780    0.8354 H   0  0  0  0  0  0  0  0  0  0  0  0
    6.6021   -1.7355    3.2177 H   0  0  0  0  0  0  0  0  0  0  0  0
    5.3518   -0.8193    5.1260 H   0  0  0  0  0  0  0  0  0  0  0  0
    3.3767    0.6318    4.7337 H   0  0  0  0  0  0  0  0  0  0  0  0
    2.6650    1.1584    2.4585 H   0  0  0  0  0  0  0  0  0  0  0  0
    5.0100    2.6580   -0.0222 H   0  0  0  0  0  0  0  0  0  0  0  0
    5.2153    5.0736   -0.3169 H   0  0  0  0  0  0  0  0  0  0  0  0
    3.2100    6.4523   -0.8042 H   0  0  0  0  0  0  0  0  0  0  0  0
    1.0007    5.3867   -0.9892 H   0  0  0  0  0  0  0  0  0  0  0  0
   -0.4043    3.4177   -0.9194 H   0  0  0  0  0  0  0  0  0  0  0  0
   -1.8457    1.5234   -0.8946 H   0  0  0  0  0  0  0  0  0  0  0  0
  1  2  4  0
  2  3  4  0
  3  4  4  0
  4  5  4  0
  5  6  4  0
  5  7  4  0
  7  8  4  0
  8  9  4  0
  9 10  4  0
 10 11  4  0
 11 12  4  0
 12 13  4  0
 13 14  4  0
 14 15  1  0
 15 16  4  0
 16 17  4  0
 17 18  4  0
 18 19  4  0
 19 20  4  0
 20 21  4  0
 21 22  4  0
 22 23  4  0
 23 24  4  0
 24 25  4  0
 25 26  4  0
 26 27  1  0
 27 28  4  0
 28 29  4  0
 29 30  4  0
 30 31  4  0
 31 32  4  0
 32 33  4  0
 33 34  4  0
 34 35  4  0
 35 36  4  0
 36 37  4  0
 37 38  4  0
 38 39  4  0
 39 40  4  0
 26 41  4  0
 41 42  4  0
 42 43  4  0
 43 44  4  0
 44 45  4  0
 45 46  4  0
 46 47  4  0
 47 48  4  0
 48 49  4  0
 49 50  4  0
  6  1  4  0
 13  8  4  0
 50 15  4  0
 14  4  4  0
 21 16  4  0
 50 23  4  0
 48 25  4  0
 40 27  4  0
 46 41  4  0
 33 28  4  0
 40 35  4  0
  1 51  1  0
  2 52  1  0
  3 53  1  0
  6 54  1  0
  7 55  1  0
  9 56  1  0
 10 57  1  0
 11 58  1  0
 12 59  1  0
 17 60  1  0
 18 61  1  0
 19 62  1  0
 20 63  1  0
 22 64  1  0
 24 65  1  0
 29 66  1  0
 30 67  1  0
 31 68  1  0
 32 69  1  0
 34 70  1  0
 36 71  1  0
 37 72  1  0
 38 73  1  0
 39 74  1  0
 42 75  1  0
 43 76  1  0
 44 77  1  0
 45 78  1  0
 47 79  1  0
 49 80  1  0
M  END
