
     RDKit          3D

100114  0  0  0  0  0  0  0  0999 V2000
    3.9622   -3.1299   -4.5314 C   0  0  0  0  0  0  0  0  0  0  0  0
    2.8020   -2.3695   -4.5116 C   0  0  0  0  0  0  0  0  0  0  0  0
    2.6379   -1.3769   -3.5428 C   0  0  0  0  0  0  0  0  0  0  0  0
    3.6295   -1.1138   -2.5661 C   0  0  0  0  0  0  0  0  0  0  0  0
    4.8021   -1.8973   -2.6059 C   0  0  0  0  0  0  0  0  0  0  0  0
    4.9555   -2.8952   -3.5835 C   0  0  0  0  0  0  0  0  0  0  0  0
    5.8147   -1.6711   -1.6678 C   0  0  0  0  0  0  0  0  0  0  0  0
    5.7087   -0.6991   -0.6887 C   0  0  0  0  0  0  0  0  0  0  0  0
    6.7330   -0.5492    0.1724 N   0  0  0  0  0  0  0  0  0  0  0  0
    6.6152    0.3930    1.1243 C   0  0  0  0  0  0  0  0  0  0  0  0
    7.6416    0.5831    2.0415 C   0  0  0  0  0  0  0  0  0  0  0  0
    7.5590    1.5546    3.0511 C   0  0  0  0  0  0  0  0  0  0  0  0
    8.5965    1.7472    3.9781 C   0  0  0  0  0  0  0  0  0  0  0  0
    8.4902    2.7208    4.9726 C   0  0  0  0  0  0  0  0  0  0  0  0
    7.3478    3.5120    5.0526 C   0  0  0  0  0  0  0  0  0  0  0  0
    6.3091    3.3314    4.1384 C   0  0  0  0  0  0  0  0  0  0  0  0
    6.4027    2.3558    3.1332 C   0  0  0  0  0  0  0  0  0  0  0  0
    5.3714    2.1570    2.2044 C   0  0  0  0  0  0  0  0  0  0  0  0
    5.4635    1.1944    1.2088 C   0  0  0  0  0  0  0  0  0  0  0  0
    4.4496    1.0431    0.3421 N   0  0  0  0  0  0  0  0  0  0  0  0
    4.5478    0.0979   -0.6198 C   0  0  0  0  0  0  0  0  0  0  0  0
    3.5113   -0.1066   -1.5582 C   0  0  0  0  0  0  0  0  0  0  0  0
    2.2954    0.7635   -1.4939 C   0  0  0  0  0  0  0  0  0  0  0  0
    2.2618    1.9879   -2.2394 C   0  0  0  0  0  0  0  0  0  0  0  0
    3.3318    2.4576   -3.0426 C   0  0  0  0  0  0  0  0  0  0  0  0
    3.2540    3.6561   -3.7559 C   0  0  0  0  0  0  0  0  0  0  0  0
    2.1022    4.4249   -3.6892 C   0  0  0  0  0  0  0  0  0  0  0  0
    1.0319    3.9925   -2.9100 C   0  0  0  0  0  0  0  0  0  0  0  0
    1.0990    2.7881   -2.1875 C   0  0  0  0  0  0  0  0  0  0  0  0
    0.0072    2.3787   -1.4137 C   0  0  0  0  0  0  0  0  0  0  0  0
    0.0252    1.1893   -0.6751 C   0  0  0  0  0  0  0  0  0  0  0  0
   -1.0991    0.8217    0.0903 C   0  0  0  0  0  0  0  0  0  0  0  0
   -1.1540   -0.3616    0.8639 C   0  0  0  0  0  0  0  0  0  0  0  0
   -2.2816   -0.7527    1.6614 C   0  0  0  0  0  0  0  0  0  0  0  0
   -3.4957    0.1195    1.7250 C   0  0  0  0  0  0  0  0  0  0  0  0
   -4.5443   -0.1019    0.8043 C   0  0  0  0  0  0  0  0  0  0  0  0
   -4.4597   -1.0650   -0.1419 N   0  0  0  0  0  0  0  0  0  0  0  0
   -5.4846   -1.2284   -0.9946 C   0  0  0  0  0  0  0  0  0  0  0  0
   -5.4105   -2.2083   -1.9757 C   0  0  0  0  0  0  0  0  0  0  0  0
   -6.4523   -2.4139   -2.8922 C   0  0  0  0  0  0  0  0  0  0  0  0
   -6.3765   -3.4039   -3.8854 C   0  0  0  0  0  0  0  0  0  0  0  0
   -7.4248   -3.5882   -4.7881 C   0  0  0  0  0  0  0  0  0  0  0  0
   -8.5598   -2.7865   -4.7085 C   0  0  0  0  0  0  0  0  0  0  0  0
   -8.6489   -1.7994   -3.7258 C   0  0  0  0  0  0  0  0  0  0  0  0
   -7.6015   -1.6031   -2.8108 C   0  0  0  0  0  0  0  0  0  0  0  0
   -7.6675   -0.6174   -1.8142 C   0  0  0  0  0  0  0  0  0  0  0  0
   -6.6314   -0.4201   -0.9105 C   0  0  0  0  0  0  0  0  0  0  0  0
   -6.7357    0.5380    0.0267 N   0  0  0  0  0  0  0  0  0  0  0  0
   -5.7026    0.6985    0.8744 C   0  0  0  0  0  0  0  0  0  0  0  0
   -5.7969    1.6861    1.8392 C   0  0  0  0  0  0  0  0  0  0  0  0
   -4.7721    1.9287    2.7594 C   0  0  0  0  0  0  0  0  0  0  0  0
   -4.9126    2.9432    3.7218 C   0  0  0  0  0  0  0  0  0  0  0  0
   -3.9028    3.1979    4.6469 C   0  0  0  0  0  0  0  0  0  0  0  0
   -2.7396    2.4415    4.6194 C   0  0  0  0  0  0  0  0  0  0  0  0
   -2.5900    1.4308    3.6675 C   0  0  0  0  0  0  0  0  0  0  0  0
   -3.5988    1.1462    2.7149 C   0  0  0  0  0  0  0  0  0  0  0  0
   -2.2465   -1.9711    2.4160 C   0  0  0  0  0  0  0  0  0  0  0  0
   -3.3124   -2.4307    3.2303 C   0  0  0  0  0  0  0  0  0  0  0  0
   -3.2332   -3.6230    3.9536 C   0  0  0  0  0  0  0  0  0  0  0  0
   -2.0848   -4.3965    3.8844 C   0  0  0  0  0  0  0  0  0  0  0  0
   -1.0188   -3.9740    3.0936 C   0  0  0  0  0  0  0  0  0  0  0  0
   -1.0861   -2.7744    2.3628 C   0  0  0  0  0  0  0  0  0  0  0  0
    0.0031   -2.3717    1.5812 C   0  0  0  0  0  0  0  0  0  0  0  0
   -0.0143   -1.1849    0.8374 C   0  0  0  0  0  0  0  0  0  0  0  0
    1.1095   -0.8185    0.0697 C   0  0  0  0  0  0  0  0  0  0  0  0
    1.1657    0.3667   -0.7016 C   0  0  0  0  0  0  0  0  0  0  0  0
    4.0974   -3.9027   -5.2836 H   0  0  0  0  0  0  0  0  0  0  0  0
    2.0212   -2.5428   -5.2478 H   0  0  0  0  0  0  0  0  0  0  0  0
    1.7140   -0.8010   -3.5626 H   0  0  0  0  0  0  0  0  0  0  0  0
    5.8595   -3.5009   -3.6162 H   0  0  0  0  0  0  0  0  0  0  0  0
    6.7245   -2.2689   -1.6934 H   0  0  0  0  0  0  0  0  0  0  0  0
    8.5253   -0.0460    1.9597 H   0  0  0  0  0  0  0  0  0  0  0  0
    9.4975    1.1388    3.9324 H   0  0  0  0  0  0  0  0  0  0  0  0
    9.2999    2.8608    5.6843 H   0  0  0  0  0  0  0  0  0  0  0  0
    7.2643    4.2709    5.8265 H   0  0  0  0  0  0  0  0  0  0  0  0
    5.4240    3.9600    4.2146 H   0  0  0  0  0  0  0  0  0  0  0  0
    4.4673    2.7613    2.2491 H   0  0  0  0  0  0  0  0  0  0  0  0
    4.2555    1.8885   -3.1207 H   0  0  0  0  0  0  0  0  0  0  0  0
    4.0961    3.9831   -4.3596 H   0  0  0  0  0  0  0  0  0  0  0  0
    2.0344    5.3587   -4.2404 H   0  0  0  0  0  0  0  0  0  0  0  0
    0.1361    4.6089   -2.8694 H   0  0  0  0  0  0  0  0  0  0  0  0
   -0.8829    3.0062   -1.3832 H   0  0  0  0  0  0  0  0  0  0  0  0
   -1.9614    1.4862    0.0795 H   0  0  0  0  0  0  0  0  0  0  0  0
   -4.5124   -2.8212   -2.0195 H   0  0  0  0  0  0  0  0  0  0  0  0
   -5.4966   -4.0397   -3.9624 H   0  0  0  0  0  0  0  0  0  0  0  0
   -7.3541   -4.3574   -5.5531 H   0  0  0  0  0  0  0  0  0  0  0  0
   -9.3769   -2.9287   -5.4113 H   0  0  0  0  0  0  0  0  0  0  0  0
   -9.5441   -1.1827   -3.6794 H   0  0  0  0  0  0  0  0  0  0  0  0
   -8.5451    0.0197   -1.7330 H   0  0  0  0  0  0  0  0  0  0  0  0
   -6.7061    2.2846    1.8662 H   0  0  0  0  0  0  0  0  0  0  0  0
   -5.8173    3.5473    3.7584 H   0  0  0  0  0  0  0  0  0  0  0  0
   -4.0249    3.9854    5.3859 H   0  0  0  0  0  0  0  0  0  0  0  0
   -1.9461    2.6326    5.3374 H   0  0  0  0  0  0  0  0  0  0  0  0
   -1.6626    0.8596    3.6779 H   0  0  0  0  0  0  0  0  0  0  0  0
   -4.2344   -1.8586    3.3097 H   0  0  0  0  0  0  0  0  0  0  0  0
   -4.0723   -3.9425    4.5656 H   0  0  0  0  0  0  0  0  0  0  0  0
   -2.0175   -5.3265    4.4420 H   0  0  0  0  0  0  0  0  0  0  0  0
   -0.1254   -4.5939    3.0514 H   0  0  0  0  0  0  0  0  0  0  0  0
    0.8924   -3.0003    1.5514 H   0  0  0  0  0  0  0  0  0  0  0  0
    1.9721   -1.4826    0.0808 H   0  0  0  0  0  0  0  0  0  0  0  0
  1  2  4  0
  2  3  4  0
  3  4  4  0
  4  5  4  0
  5  6  4  0
  5  7  4  0
  7  8  4  0
  8  9  4  0
  9 10  4  0
 10 11  4  0
 11 12  4  0
 12 13  4  0
 13 14  4  0
 14 15  4  0
 15 16  4  0
 16 17  4  0
 17 18  4  0
 18 19  4  0
 19 20  4  0
 20 21  4  0
 21 22  4  0
 22 23  1  0
 23 24  4  0
 24 25  4  0
 25 26  4  0
 26 27  4  0
 27 28  4  0
 28 29  4  0
 29 30  4  0
 30 31  4  0
 31 32  4  0
 32 33  4  0
 33 34  4  0
 34 35  1  0
 35 36  4  0
 36 37  4  0
 37 38  4  0
 38 39  4  0
 39 40  4  0
 40 41  4  0
 41 42  4  0
 42 43  4  0
 43 44  4  0
 44 45  4  0
 45 46  4  0
 46 47  4  0
 47 48  4  0
 48 49  4  0
 49 50  4  0
 50 51  4  0
 51 52  4  0
 52 53  4  0
 53 54  4  0
 54 55  4  0
 55 56  4  0
 34 57  4  0
 57 58  4  0
 58 59  4  0
 59 60  4  0
 60 61  4  0
 61 62  4  0
 62 63  4  0
 63 64  4  0
 64 65  4  0
 65 66  4  0
  6  1  4  0
 21  8  4  0
 66 23  4  0
 22  4  4  0
 29 24  4  0
 66 31  4  0
 19 10  4  0
 64 33  4  0
 17 12  4  0
 56 35  4  0
 62 57  4  0
 49 36  4  0
 56 51  4  0
 47 38  4  0
 45 40  4  0
  1 67  1  0
  2 68  1  0
  3 69  1  0
  6 70  1  0
  7 71  1  0
 11 72  1  0
 13 73  1  0
 14 74  1  0
 15 75  1  0
 16 76  1  0
 18 77  1  0
 25 78  1  0
 26 79  1  0
 27 80  1  0
 28 81  1  0
 30 82  1  0
 32 83  1  0
 39 84  1  0
 41 85  1  0
 42 86  1  0
 43 87  1  0
 44 88  1  0
 46 89  1  0
 50 90  1  0
 52 91  1  0
 53 92  1  0
 54 93  1  0
 55 94  1  0
 58 95  1  0
 59 96  1  0
 60 97  1  0
 61 98  1  0
 63 99  1  0
 65100  1  0
M  END
