
     RDKit          3D

100114  0  0  0  0  0  0  0  0999 V2000
   14.9538    1.2455    0.8385 C   0  0  0  0  0  0  0  0  0  0  0  0
   14.5594    1.7188    2.0864 C   0  0  0  0  0  0  0  0  0  0  0  0
   13.2367    1.5653    2.5042 C   0  0  0  0  0  0  0  0  0  0  0  0
   12.2928    0.9355    1.6767 C   0  0  0  0  0  0  0  0  0  0  0  0
   10.9579    0.7697    2.0753 C   0  0  0  0  0  0  0  0  0  0  0  0
   10.0222    0.1481    1.2587 C   0  0  0  0  0  0  0  0  0  0  0  0
    8.7540    0.0137    1.6872 N   0  0  0  0  0  0  0  0  0  0  0  0
    7.8795   -0.5935    0.8641 C   0  0  0  0  0  0  0  0  0  0  0  0
    6.5587   -0.7534    1.2631 C   0  0  0  0  0  0  0  0  0  0  0  0
    5.6068   -1.3721    0.4384 C   0  0  0  0  0  0  0  0  0  0  0  0
    4.2704   -1.5278    0.8431 C   0  0  0  0  0  0  0  0  0  0  0  0
    3.3222   -2.1386    0.0062 C   0  0  0  0  0  0  0  0  0  0  0  0
    1.9163   -2.2848    0.4418 C   0  0  0  0  0  0  0  0  0  0  0  0
    1.4899   -3.4968    1.0739 C   0  0  0  0  0  0  0  0  0  0  0  0
    2.3426   -4.6017    1.3259 C   0  0  0  0  0  0  0  0  0  0  0  0
    1.8831   -5.7674    1.9435 C   0  0  0  0  0  0  0  0  0  0  0  0
    0.5555   -5.8632    2.3315 C   0  0  0  0  0  0  0  0  0  0  0  0
   -0.3080   -4.7944    2.1016 C   0  0  0  0  0  0  0  0  0  0  0  0
    0.1427   -3.6168    1.4802 C   0  0  0  0  0  0  0  0  0  0  0  0
   -0.7460   -2.5571    1.2648 C   0  0  0  0  0  0  0  0  0  0  0  0
   -0.3413   -1.3637    0.6531 C   0  0  0  0  0  0  0  0  0  0  0  0
   -1.2665   -0.3201    0.4635 C   0  0  0  0  0  0  0  0  0  0  0  0
   -0.9271    0.9134   -0.1431 C   0  0  0  0  0  0  0  0  0  0  0  0
   -1.8499    1.9924   -0.3368 C   0  0  0  0  0  0  0  0  0  0  0  0
   -3.2507    1.8521    0.1150 C   0  0  0  0  0  0  0  0  0  0  0  0
   -4.2447    1.4003   -0.7682 C   0  0  0  0  0  0  0  0  0  0  0  0
   -5.5807    1.2693   -0.3548 C   0  0  0  0  0  0  0  0  0  0  0  0
   -6.5831    0.8280   -1.2320 C   0  0  0  0  0  0  0  0  0  0  0  0
   -7.9050    0.6983   -0.8260 C   0  0  0  0  0  0  0  0  0  0  0  0
   -8.8334    0.2745   -1.7037 N   0  0  0  0  0  0  0  0  0  0  0  0
  -10.1001    0.1613   -1.2645 C   0  0  0  0  0  0  0  0  0  0  0  0
  -11.0902   -0.2734   -2.1359 C   0  0  0  0  0  0  0  0  0  0  0  0
  -12.4258   -0.4093   -1.7284 C   0  0  0  0  0  0  0  0  0  0  0  0
  -13.4250   -0.8490   -2.6119 C   0  0  0  0  0  0  0  0  0  0  0  0
  -14.7473   -0.9766   -2.1843 C   0  0  0  0  0  0  0  0  0  0  0  0
  -15.0861   -0.6667   -0.8705 C   0  0  0  0  0  0  0  0  0  0  0  0
  -14.1033   -0.2286    0.0182 C   0  0  0  0  0  0  0  0  0  0  0  0
  -12.7686   -0.0956   -0.3986 C   0  0  0  0  0  0  0  0  0  0  0  0
  -11.7632    0.3430    0.4765 C   0  0  0  0  0  0  0  0  0  0  0  0
  -10.4428    0.4753    0.0666 C   0  0  0  0  0  0  0  0  0  0  0  0
   -9.5149    0.9000    0.9438 N   0  0  0  0  0  0  0  0  0  0  0  0
   -8.2492    1.0145    0.5041 C   0  0  0  0  0  0  0  0  0  0  0  0
   -7.2626    1.4532    1.3766 C   0  0  0  0  0  0  0  0  0  0  0  0
   -5.9276    1.5901    0.9715 C   0  0  0  0  0  0  0  0  0  0  0  0
   -4.9355    2.0397    1.8553 C   0  0  0  0  0  0  0  0  0  0  0  0
   -3.6121    2.1712    1.4303 C   0  0  0  0  0  0  0  0  0  0  0  0
   -1.4255    3.2067   -0.9648 C   0  0  0  0  0  0  0  0  0  0  0  0
   -2.2750    4.3202   -1.1888 C   0  0  0  0  0  0  0  0  0  0  0  0
   -1.8214    5.4857   -1.8099 C   0  0  0  0  0  0  0  0  0  0  0  0
   -0.5019    5.5742   -2.2256 C   0  0  0  0  0  0  0  0  0  0  0  0
    0.3601    4.4996   -2.0166 C   0  0  0  0  0  0  0  0  0  0  0  0
   -0.0845    3.3214   -1.3918 C   0  0  0  0  0  0  0  0  0  0  0  0
    0.8030    2.2572   -1.1896 C   0  0  0  0  0  0  0  0  0  0  0  0
    0.4022    1.0641   -0.5737 C   0  0  0  0  0  0  0  0  0  0  0  0
    1.3273    0.0192   -0.3858 C   0  0  0  0  0  0  0  0  0  0  0  0
    0.9906   -1.2108    0.2308 C   0  0  0  0  0  0  0  0  0  0  0  0
    3.7332   -2.6021   -1.2503 C   0  0  0  0  0  0  0  0  0  0  0  0
    5.0600   -2.4593   -1.6618 C   0  0  0  0  0  0  0  0  0  0  0  0
    6.0048   -1.8443   -0.8268 C   0  0  0  0  0  0  0  0  0  0  0  0
    7.3409   -1.6847   -1.2218 C   0  0  0  0  0  0  0  0  0  0  0  0
    8.2779   -1.0701   -0.4016 C   0  0  0  0  0  0  0  0  0  0  0  0
    9.5462   -0.9372   -0.8296 N   0  0  0  0  0  0  0  0  0  0  0  0
   10.4209   -0.3307   -0.0062 C   0  0  0  0  0  0  0  0  0  0  0  0
   11.7413   -0.1706   -0.4065 C   0  0  0  0  0  0  0  0  0  0  0  0
   12.6918    0.4566    0.4134 C   0  0  0  0  0  0  0  0  0  0  0  0
   14.0262    0.6178    0.0058 C   0  0  0  0  0  0  0  0  0  0  0  0
   15.9838    1.3644    0.5118 H   0  0  0  0  0  0  0  0  0  0  0  0
   15.2809    2.2080    2.7359 H   0  0  0  0  0  0  0  0  0  0  0  0
   12.9476    1.9418    3.4833 H   0  0  0  0  0  0  0  0  0  0  0  0
   10.6291    1.1321    3.0470 H   0  0  0  0  0  0  0  0  0  0  0  0
    6.2714   -0.3799    2.2439 H   0  0  0  0  0  0  0  0  0  0  0  0
    3.9541   -1.1668    1.8214 H   0  0  0  0  0  0  0  0  0  0  0  0
    3.3922   -4.5652    1.0401 H   0  0  0  0  0  0  0  0  0  0  0  0
    2.5658   -6.5946    2.1192 H   0  0  0  0  0  0  0  0  0  0  0  0
    0.1900   -6.7660    2.8133 H   0  0  0  0  0  0  0  0  0  0  0  0
   -1.3461   -4.8875    2.4150 H   0  0  0  0  0  0  0  0  0  0  0  0
   -1.7827   -2.6632    1.5843 H   0  0  0  0  0  0  0  0  0  0  0  0
   -2.2892   -0.4777    0.8046 H   0  0  0  0  0  0  0  0  0  0  0  0
   -3.9660    1.1528   -1.7921 H   0  0  0  0  0  0  0  0  0  0  0  0
   -6.3363    0.5784   -2.2619 H   0  0  0  0  0  0  0  0  0  0  0  0
  -10.8046   -0.5104   -3.1586 H   0  0  0  0  0  0  0  0  0  0  0  0
  -13.1793   -1.0960   -3.6427 H   0  0  0  0  0  0  0  0  0  0  0  0
  -15.5118   -1.3180   -2.8776 H   0  0  0  0  0  0  0  0  0  0  0  0
  -16.1157   -0.7657   -0.5361 H   0  0  0  0  0  0  0  0  0  0  0  0
  -14.3877    0.0088    1.0413 H   0  0  0  0  0  0  0  0  0  0  0  0
  -12.0076    0.5904    1.5074 H   0  0  0  0  0  0  0  0  0  0  0  0
   -7.5518    1.6937    2.3975 H   0  0  0  0  0  0  0  0  0  0  0  0
   -5.1853    2.2949    2.8832 H   0  0  0  0  0  0  0  0  0  0  0  0
   -2.8582    2.5252    2.1313 H   0  0  0  0  0  0  0  0  0  0  0  0
   -3.3170    4.2917   -0.8761 H   0  0  0  0  0  0  0  0  0  0  0  0
   -2.5014    6.3192   -1.9650 H   0  0  0  0  0  0  0  0  0  0  0  0
   -0.1402    6.4765   -2.7107 H   0  0  0  0  0  0  0  0  0  0  0  0
    1.3927    4.5902   -2.3480 H   0  0  0  0  0  0  0  0  0  0  0  0
    1.8362    2.3607   -1.5206 H   0  0  0  0  0  0  0  0  0  0  0  0
    2.3483    0.1741   -0.7335 H   0  0  0  0  0  0  0  0  0  0  0  0
    3.0163   -3.0799   -1.9157 H   0  0  0  0  0  0  0  0  0  0  0  0
    5.3480   -2.8310   -2.6432 H   0  0  0  0  0  0  0  0  0  0  0  0
    7.6694   -2.0435   -2.1950 H   0  0  0  0  0  0  0  0  0  0  0  0
   12.0295   -0.5473   -1.3857 H   0  0  0  0  0  0  0  0  0  0  0  0
   14.3535    0.2546   -0.9662 H   0  0  0  0  0  0  0  0  0  0  0  0
  1  2  4  0
  2  3  4  0
  3  4  4  0
  4  5  4  0
  5  6  4  0
  6  7  4  0
  7  8  4  0
  8  9  4  0
  9 10  4  0
 10 11  4  0
 11 12  4  0
 12 13  1  0
 13 14  4  0
 14 15  4  0
 15 16  4  0
 16 17  4  0
 17 18  4  0
 18 19  4  0
 19 20  4  0
 20 21  4  0
 21 22  4  0
 22 23  4  0
 23 24  4  0
 24 25  1  0
 25 26  4  0
 26 27  4  0
 27 28  4  0
 28 29  4  0
 29 30  4  0
 30 31  4  0
 31 32  4  0
 32 33  4  0
 33 34  4  0
 34 35  4  0
 35 36  4  0
 36 37  4  0
 37 38  4  0
 38 39  4  0
 39 40  4  0
 40 41  4  0
 41 42  4  0
 42 43  4  0
 43 44  4  0
 44 45  4  0
 45 46  4  0
 24 47  4  0
 47 48  4  0
 48 49  4  0
 49 50  4  0
 50 51  4  0
 51 52  4  0
 52 53  4  0
 53 54  4  0
 54 55  4  0
 55 56  4  0
 12 57  4  0
 57 58  4  0
 58 59  4  0
 59 60  4  0
 60 61  4  0
 61 62  4  0
 62 63  4  0
 63 64  4  0
 64 65  4  0
 65 66  4  0
 66  1  4  0
 65  4  4  0
 63  6  4  0
 61  8  4  0
 59 10  4  0
 56 13  4  0
 19 14  4  0
 56 21  4  0
 54 23  4  0
 46 25  4  0
 52 47  4  0
 44 27  4  0
 42 29  4  0
 40 31  4  0
 38 33  4  0
  1 67  1  0
  2 68  1  0
  3 69  1  0
  5 70  1  0
  9 71  1  0
 11 72  1  0
 15 73  1  0
 16 74  1  0
 17 75  1  0
 18 76  1  0
 20 77  1  0
 22 78  1  0
 26 79  1  0
 28 80  1  0
 32 81  1  0
 34 82  1  0
 35 83  1  0
 36 84  1  0
 37 85  1  0
 39 86  1  0
 43 87  1  0
 45 88  1  0
 46 89  1  0
 48 90  1  0
 49 91  1  0
 50 92  1  0
 51 93  1  0
 53 94  1  0
 55 95  1  0
 57 96  1  0
 58 97  1  0
 60 98  1  0
 64 99  1  0
 66100  1  0
M  END
