
     RDKit          3D

100114  0  0  0  0  0  0  0  0999 V2000
  -12.3049    1.8070   -2.0029 C   0  0  0  0  0  0  0  0  0  0  0  0
  -11.5922    1.5211   -3.1637 C   0  0  0  0  0  0  0  0  0  0  0  0
  -10.2678    1.0894   -3.0800 C   0  0  0  0  0  0  0  0  0  0  0  0
   -9.6414    0.9387   -1.8321 C   0  0  0  0  0  0  0  0  0  0  0  0
   -8.3115    0.5055   -1.7233 C   0  0  0  0  0  0  0  0  0  0  0  0
   -7.6907    0.3541   -0.4905 C   0  0  0  0  0  0  0  0  0  0  0  0
   -6.4144   -0.0665   -0.4396 N   0  0  0  0  0  0  0  0  0  0  0  0
   -5.8503   -0.2022    0.7741 C   0  0  0  0  0  0  0  0  0  0  0  0
   -4.5350   -0.6390    0.8768 C   0  0  0  0  0  0  0  0  0  0  0  0
   -3.8811   -0.8115    2.1180 C   0  0  0  0  0  0  0  0  0  0  0  0
   -4.6160   -0.5096    3.2861 C   0  0  0  0  0  0  0  0  0  0  0  0
   -5.9428   -0.0650    3.1759 C   0  0  0  0  0  0  0  0  0  0  0  0
   -6.5694    0.0889    1.9476 C   0  0  0  0  0  0  0  0  0  0  0  0
   -7.8467    0.5111    1.8999 N   0  0  0  0  0  0  0  0  0  0  0  0
   -8.4117    0.6442    0.6858 C   0  0  0  0  0  0  0  0  0  0  0  0
   -9.7286    1.0741    0.5851 C   0  0  0  0  0  0  0  0  0  0  0  0
  -10.3628    1.2280   -0.6571 C   0  0  0  0  0  0  0  0  0  0  0  0
  -11.6948    1.6618   -0.7562 C   0  0  0  0  0  0  0  0  0  0  0  0
   -4.0205   -0.6587    4.5478 C   0  0  0  0  0  0  0  0  0  0  0  0
   -2.7086   -1.1070    4.6706 C   0  0  0  0  0  0  0  0  0  0  0  0
   -1.9746   -1.4134    3.5302 C   0  0  0  0  0  0  0  0  0  0  0  0
   -2.5384   -1.2731    2.2476 C   0  0  0  0  0  0  0  0  0  0  0  0
   -1.6990   -1.6242    1.0722 C   0  0  0  0  0  0  0  0  0  0  0  0
   -1.7720   -2.9419    0.5146 C   0  0  0  0  0  0  0  0  0  0  0  0
   -2.6261   -3.9629    1.0038 C   0  0  0  0  0  0  0  0  0  0  0  0
   -2.6681   -5.2341    0.4266 C   0  0  0  0  0  0  0  0  0  0  0  0
   -1.8543   -5.5259   -0.6576 C   0  0  0  0  0  0  0  0  0  0  0  0
   -1.0012   -4.5461   -1.1606 C   0  0  0  0  0  0  0  0  0  0  0  0
   -0.9513   -3.2624   -0.5889 C   0  0  0  0  0  0  0  0  0  0  0  0
   -0.0823   -2.2972   -1.1113 C   0  0  0  0  0  0  0  0  0  0  0  0
    0.0009   -1.0054   -0.5754 C   0  0  0  0  0  0  0  0  0  0  0  0
    0.8973   -0.0699   -1.1257 C   0  0  0  0  0  0  0  0  0  0  0  0
    1.0442    1.2468   -0.6262 C   0  0  0  0  0  0  0  0  0  0  0  0
    1.9729    2.2056   -1.1495 C   0  0  0  0  0  0  0  0  0  0  0  0
    2.8642    1.8299   -2.2783 C   0  0  0  0  0  0  0  0  0  0  0  0
    2.4508    2.1383   -3.5879 C   0  0  0  0  0  0  0  0  0  0  0  0
    3.2434    1.8105   -4.6824 C   0  0  0  0  0  0  0  0  0  0  0  0
    4.4618    1.1669   -4.4859 C   0  0  0  0  0  0  0  0  0  0  0  0
    4.9039    0.8404   -3.1950 C   0  0  0  0  0  0  0  0  0  0  0  0
    6.1312    0.1851   -3.0094 C   0  0  0  0  0  0  0  0  0  0  0  0
    6.5986   -0.1608   -1.7497 C   0  0  0  0  0  0  0  0  0  0  0  0
    7.7798   -0.7944   -1.6298 N   0  0  0  0  0  0  0  0  0  0  0  0
    8.1908   -1.1130   -0.3886 C   0  0  0  0  0  0  0  0  0  0  0  0
    9.4038   -1.7675   -0.2148 C   0  0  0  0  0  0  0  0  0  0  0  0
    9.8772   -2.1209    1.0579 C   0  0  0  0  0  0  0  0  0  0  0  0
   11.1041   -2.7823    1.2315 C   0  0  0  0  0  0  0  0  0  0  0  0
   11.5545   -3.1236    2.5076 C   0  0  0  0  0  0  0  0  0  0  0  0
   10.7851   -2.8084    3.6238 C   0  0  0  0  0  0  0  0  0  0  0  0
    9.5641   -2.1514    3.4660 C   0  0  0  0  0  0  0  0  0  0  0  0
    9.0986   -1.8020    2.1879 C   0  0  0  0  0  0  0  0  0  0  0  0
    7.8746   -1.1413    2.0051 C   0  0  0  0  0  0  0  0  0  0  0  0
    7.4120   -0.7941    0.7426 C   0  0  0  0  0  0  0  0  0  0  0  0
    6.2317   -0.1605    0.6200 N   0  0  0  0  0  0  0  0  0  0  0  0
    5.8219    0.1585   -0.6212 C   0  0  0  0  0  0  0  0  0  0  0  0
    4.6094    0.8131   -0.7988 C   0  0  0  0  0  0  0  0  0  0  0  0
    4.1112    1.1691   -2.0732 C   0  0  0  0  0  0  0  0  0  0  0  0
    2.0581    3.5183   -0.5831 C   0  0  0  0  0  0  0  0  0  0  0  0
    2.9565    4.5186   -1.0338 C   0  0  0  0  0  0  0  0  0  0  0  0
    3.0076    5.7868   -0.4506 C   0  0  0  0  0  0  0  0  0  0  0  0
    2.1603    6.0950    0.6030 C   0  0  0  0  0  0  0  0  0  0  0  0
    1.2683    5.1334    1.0725 C   0  0  0  0  0  0  0  0  0  0  0  0
    1.2095    3.8525    0.4950 C   0  0  0  0  0  0  0  0  0  0  0  0
    0.3121    2.9003    0.9937 C   0  0  0  0  0  0  0  0  0  0  0  0
    0.2244    1.6095    0.4558 C   0  0  0  0  0  0  0  0  0  0  0  0
   -0.6765    0.6755    1.0025 C   0  0  0  0  0  0  0  0  0  0  0  0
   -0.8072   -0.6485    0.5173 C   0  0  0  0  0  0  0  0  0  0  0  0
  -13.3367    2.1434   -2.0668 H   0  0  0  0  0  0  0  0  0  0  0  0
  -12.0665    1.6338   -4.1353 H   0  0  0  0  0  0  0  0  0  0  0  0
   -9.7266    0.8705   -3.9983 H   0  0  0  0  0  0  0  0  0  0  0  0
   -7.7358    0.2765   -2.6177 H   0  0  0  0  0  0  0  0  0  0  0  0
   -4.0110   -0.8552   -0.0529 H   0  0  0  0  0  0  0  0  0  0  0  0
   -6.5170    0.1677    4.0707 H   0  0  0  0  0  0  0  0  0  0  0  0
  -10.2682    1.2921    1.5042 H   0  0  0  0  0  0  0  0  0  0  0  0
  -12.2685    1.8904    0.1396 H   0  0  0  0  0  0  0  0  0  0  0  0
   -4.5799   -0.4275    5.4527 H   0  0  0  0  0  0  0  0  0  0  0  0
   -2.2600   -1.2208    5.6542 H   0  0  0  0  0  0  0  0  0  0  0  0
   -0.9498   -1.7669    3.6367 H   0  0  0  0  0  0  0  0  0  0  0  0
   -3.2816   -3.7754    1.8520 H   0  0  0  0  0  0  0  0  0  0  0  0
   -3.3392   -5.9896    0.8267 H   0  0  0  0  0  0  0  0  0  0  0  0
   -1.8814   -6.5122   -1.1127 H   0  0  0  0  0  0  0  0  0  0  0  0
   -0.3691   -4.7935   -2.0113 H   0  0  0  0  0  0  0  0  0  0  0  0
    0.5547   -2.5599   -1.9557 H   0  0  0  0  0  0  0  0  0  0  0  0
    1.5078   -0.3863   -1.9708 H   0  0  0  0  0  0  0  0  0  0  0  0
    1.4999    2.6427   -3.7525 H   0  0  0  0  0  0  0  0  0  0  0  0
    2.9120    2.0561   -5.6881 H   0  0  0  0  0  0  0  0  0  0  0  0
    5.0674    0.9184   -5.3558 H   0  0  0  0  0  0  0  0  0  0  0  0
    6.7491   -0.0711   -3.8679 H   0  0  0  0  0  0  0  0  0  0  0  0
    9.9900   -2.0045   -1.1001 H   0  0  0  0  0  0  0  0  0  0  0  0
   11.7194   -3.0373    0.3711 H   0  0  0  0  0  0  0  0  0  0  0  0
   12.5058   -3.6356    2.6292 H   0  0  0  0  0  0  0  0  0  0  0  0
   11.1345   -3.0736    4.6184 H   0  0  0  0  0  0  0  0  0  0  0  0
    8.9765   -1.9131    4.3504 H   0  0  0  0  0  0  0  0  0  0  0  0
    7.2579   -0.8857    2.8643 H   0  0  0  0  0  0  0  0  0  0  0  0
    4.0374    1.0460    0.0979 H   0  0  0  0  0  0  0  0  0  0  0  0
    3.6415    4.3162   -1.8551 H   0  0  0  0  0  0  0  0  0  0  0  0
    3.7119    6.5269   -0.8216 H   0  0  0  0  0  0  0  0  0  0  0  0
    2.1935    7.0789    1.0625 H   0  0  0  0  0  0  0  0  0  0  0  0
    0.6146    5.3918    1.9033 H   0  0  0  0  0  0  0  0  0  0  0  0
   -0.3327    3.1695    1.8299 H   0  0  0  0  0  0  0  0  0  0  0  0
   -1.2930    0.9941    1.8422 H   0  0  0  0  0  0  0  0  0  0  0  0
  1  2  4  0
  2  3  4  0
  3  4  4  0
  4  5  4  0
  5  6  4  0
  6  7  4  0
  7  8  4  0
  8  9  4  0
  9 10  4  0
 10 11  4  0
 11 12  4  0
 12 13  4  0
 13 14  4  0
 14 15  4  0
 15 16  4  0
 16 17  4  0
 17 18  4  0
 11 19  4  0
 19 20  4  0
 20 21  4  0
 21 22  4  0
 22 23  1  0
 23 24  4  0
 24 25  4  0
 25 26  4  0
 26 27  4  0
 27 28  4  0
 28 29  4  0
 29 30  4  0
 30 31  4  0
 31 32  4  0
 32 33  4  0
 33 34  4  0
 34 35  1  0
 35 36  4  0
 36 37  4  0
 37 38  4  0
 38 39  4  0
 39 40  4  0
 40 41  4  0
 41 42  4  0
 42 43  4  0
 43 44  4  0
 44 45  4  0
 45 46  4  0
 46 47  4  0
 47 48  4  0
 48 49  4  0
 49 50  4  0
 50 51  4  0
 51 52  4  0
 52 53  4  0
 53 54  4  0
 54 55  4  0
 55 56  4  0
 34 57  4  0
 57 58  4  0
 58 59  4  0
 59 60  4  0
 60 61  4  0
 61 62  4  0
 62 63  4  0
 63 64  4  0
 64 65  4  0
 65 66  4  0
 18  1  4  0
 66 23  4  0
 17  4  4  0
 29 24  4  0
 66 31  4  0
 15  6  4  0
 64 33  4  0
 13  8  4  0
 56 35  4  0
 62 57  4  0
 22 10  4  0
 56 39  4  0
 54 41  4  0
 52 43  4  0
 50 45  4  0
  1 67  1  0
  2 68  1  0
  3 69  1  0
  5 70  1  0
  9 71  1  0
 12 72  1  0
 16 73  1  0
 18 74  1  0
 19 75  1  0
 20 76  1  0
 21 77  1  0
 25 78  1  0
 26 79  1  0
 27 80  1  0
 28 81  1  0
 30 82  1  0
 32 83  1  0
 36 84  1  0
 37 85  1  0
 38 86  1  0
 40 87  1  0
 44 88  1  0
 46 89  1  0
 47 90  1  0
 48 91  1  0
 49 92  1  0
 51 93  1  0
 55 94  1  0
 58 95  1  0
 59 96  1  0
 60 97  1  0
 61 98  1  0
 63 99  1  0
 65100  1  0
M  END
