
     RDKit          3D

 96110  0  0  0  0  0  0  0  0999 V2000
  -11.6428    0.0849    2.3537 C   0  0  0  0  0  0  0  0  0  0  0  0
  -11.1031   -0.2903    1.1229 C   0  0  0  0  0  0  0  0  0  0  0  0
   -9.7874    0.0078    0.7897 C   0  0  0  0  0  0  0  0  0  0  0  0
   -9.3015   -0.3698   -0.4066 N   0  0  0  0  0  0  0  0  0  0  0  0
   -8.0235   -0.0584   -0.6826 C   0  0  0  0  0  0  0  0  0  0  0  0
   -7.4796   -0.4244   -1.9024 C   0  0  0  0  0  0  0  0  0  0  0  0
   -6.1686   -0.1282   -2.2370 C   0  0  0  0  0  0  0  0  0  0  0  0
   -5.6860   -0.5031   -3.4330 N   0  0  0  0  0  0  0  0  0  0  0  0
   -4.4045   -0.2035   -3.7109 C   0  0  0  0  0  0  0  0  0  0  0  0
   -3.8828   -0.5975   -4.9353 C   0  0  0  0  0  0  0  0  0  0  0  0
   -2.5605   -0.3346   -5.2810 C   0  0  0  0  0  0  0  0  0  0  0  0
   -1.7447    0.3400   -4.3837 C   0  0  0  0  0  0  0  0  0  0  0  0
   -2.2489    0.7607   -3.1389 C   0  0  0  0  0  0  0  0  0  0  0  0
   -1.3464    1.4827   -2.2049 C   0  0  0  0  0  0  0  0  0  0  0  0
   -1.1373    2.8913   -2.3635 C   0  0  0  0  0  0  0  0  0  0  0  0
   -1.7579    3.6792   -3.3670 C   0  0  0  0  0  0  0  0  0  0  0  0
   -1.5200    5.0506   -3.4868 C   0  0  0  0  0  0  0  0  0  0  0  0
   -0.6556    5.6791   -2.6036 C   0  0  0  0  0  0  0  0  0  0  0  0
   -0.0348    4.9360   -1.6022 C   0  0  0  0  0  0  0  0  0  0  0  0
   -0.2667    3.5556   -1.4716 C   0  0  0  0  0  0  0  0  0  0  0  0
    0.3638    2.8363   -0.4497 C   0  0  0  0  0  0  0  0  0  0  0  0
    0.1588    1.4617   -0.2746 C   0  0  0  0  0  0  0  0  0  0  0  0
    0.8008    0.7812    0.7776 C   0  0  0  0  0  0  0  0  0  0  0  0
    0.6346   -0.6044    1.0189 C   0  0  0  0  0  0  0  0  0  0  0  0
    1.2627   -1.3165    2.0933 C   0  0  0  0  0  0  0  0  0  0  0  0
    2.1234   -0.5849    3.0583 C   0  0  0  0  0  0  0  0  0  0  0  0
    3.4941   -0.3790    2.8086 C   0  0  0  0  0  0  0  0  0  0  0  0
    4.0869   -0.8415    1.6838 N   0  0  0  0  0  0  0  0  0  0  0  0
    5.3921   -0.5941    1.4961 C   0  0  0  0  0  0  0  0  0  0  0  0
    6.0179   -1.0455    0.3458 C   0  0  0  0  0  0  0  0  0  0  0  0
    7.3609   -0.8087    0.1039 C   0  0  0  0  0  0  0  0  0  0  0  0
    7.9253   -1.2631   -1.0285 N   0  0  0  0  0  0  0  0  0  0  0  0
    9.2326   -1.0087   -1.2180 C   0  0  0  0  0  0  0  0  0  0  0  0
    9.8609   -1.4594   -2.3725 C   0  0  0  0  0  0  0  0  0  0  0  0
   11.2154   -1.2163   -2.6037 C   0  0  0  0  0  0  0  0  0  0  0  0
   11.9547   -0.5103   -1.6639 C   0  0  0  0  0  0  0  0  0  0  0  0
   11.3321   -0.0533   -0.5016 C   0  0  0  0  0  0  0  0  0  0  0  0
    9.9835   -0.2902   -0.2625 C   0  0  0  0  0  0  0  0  0  0  0  0
    9.4160    0.1650    0.8699 N   0  0  0  0  0  0  0  0  0  0  0  0
    8.1096   -0.0915    1.0566 C   0  0  0  0  0  0  0  0  0  0  0  0
    7.4818    0.3573    2.2072 C   0  0  0  0  0  0  0  0  0  0  0  0
    6.1378    0.1217    2.4467 C   0  0  0  0  0  0  0  0  0  0  0  0
    5.5687    0.5803    3.5740 N   0  0  0  0  0  0  0  0  0  0  0  0
    4.2584    0.3375    3.7579 C   0  0  0  0  0  0  0  0  0  0  0  0
    3.6538    0.8158    4.9125 C   0  0  0  0  0  0  0  0  0  0  0  0
    2.2996    0.6142    5.1610 C   0  0  0  0  0  0  0  0  0  0  0  0
    1.5368   -0.0830    4.2354 C   0  0  0  0  0  0  0  0  0  0  0  0
    1.0361   -2.7208    2.2629 C   0  0  0  0  0  0  0  0  0  0  0  0
    1.6228   -3.5002    3.2916 C   0  0  0  0  0  0  0  0  0  0  0  0
    1.3621   -4.8659    3.4268 C   0  0  0  0  0  0  0  0  0  0  0  0
    0.5074   -5.4972    2.5359 C   0  0  0  0  0  0  0  0  0  0  0  0
   -0.0808   -4.7620    1.5098 C   0  0  0  0  0  0  0  0  0  0  0  0
    0.1750   -3.3872    1.3629 C   0  0  0  0  0  0  0  0  0  0  0  0
   -0.4296   -2.6733    0.3223 C   0  0  0  0  0  0  0  0  0  0  0  0
   -0.2109   -1.3019    0.1398 C   0  0  0  0  0  0  0  0  0  0  0  0
   -0.8460   -0.6230   -0.9169 C   0  0  0  0  0  0  0  0  0  0  0  0
   -0.6918    0.7652   -1.1496 C   0  0  0  0  0  0  0  0  0  0  0  0
   -3.5860    0.4892   -2.7900 C   0  0  0  0  0  0  0  0  0  0  0  0
   -4.0918    0.8659   -1.5936 N   0  0  0  0  0  0  0  0  0  0  0  0
   -5.3677    0.5615   -1.3119 C   0  0  0  0  0  0  0  0  0  0  0  0
   -5.9097    0.9297   -0.0916 C   0  0  0  0  0  0  0  0  0  0  0  0
   -7.2210    0.6357    0.2437 C   0  0  0  0  0  0  0  0  0  0  0  0
   -7.7049    1.0148    1.4391 N   0  0  0  0  0  0  0  0  0  0  0  0
   -8.9837    0.7044    1.7186 C   0  0  0  0  0  0  0  0  0  0  0  0
   -9.5303    1.0737    2.9417 C   0  0  0  0  0  0  0  0  0  0  0  0
  -10.8528    0.7700    3.2672 C   0  0  0  0  0  0  0  0  0  0  0  0
  -12.6747   -0.1588    2.5925 H   0  0  0  0  0  0  0  0  0  0  0  0
  -11.7200   -0.8268    0.4060 H   0  0  0  0  0  0  0  0  0  0  0  0
   -8.0995   -0.9586   -2.6178 H   0  0  0  0  0  0  0  0  0  0  0  0
   -4.5248   -1.1285   -5.6348 H   0  0  0  0  0  0  0  0  0  0  0  0
   -2.1721   -0.6572   -6.2433 H   0  0  0  0  0  0  0  0  0  0  0  0
   -0.7076    0.5441   -4.6463 H   0  0  0  0  0  0  0  0  0  0  0  0
   -2.4504    3.2284   -4.0741 H   0  0  0  0  0  0  0  0  0  0  0  0
   -2.0152    5.6214   -4.2677 H   0  0  0  0  0  0  0  0  0  0  0  0
   -0.4664    6.7454   -2.6875 H   0  0  0  0  0  0  0  0  0  0  0  0
    0.6365    5.4479   -0.9155 H   0  0  0  0  0  0  0  0  0  0  0  0
    1.0289    3.3626    0.2339 H   0  0  0  0  0  0  0  0  0  0  0  0
    1.4529    1.3579    1.4315 H   0  0  0  0  0  0  0  0  0  0  0  0
    5.4373   -1.5990   -0.3882 H   0  0  0  0  0  0  0  0  0  0  0  0
    9.2803   -2.0125   -3.1070 H   0  0  0  0  0  0  0  0  0  0  0  0
   11.6855   -1.5789   -3.5141 H   0  0  0  0  0  0  0  0  0  0  0  0
   13.0109   -0.3138   -1.8300 H   0  0  0  0  0  0  0  0  0  0  0  0
   11.9090    0.4996    0.2360 H   0  0  0  0  0  0  0  0  0  0  0  0
    8.0595    0.9122    2.9418 H   0  0  0  0  0  0  0  0  0  0  0  0
    4.2560    1.3642    5.6338 H   0  0  0  0  0  0  0  0  0  0  0  0
    1.8421    1.0017    6.0675 H   0  0  0  0  0  0  0  0  0  0  0  0
    0.4760   -0.2403    4.4234 H   0  0  0  0  0  0  0  0  0  0  0  0
    2.3051   -3.0473    4.0078 H   0  0  0  0  0  0  0  0  0  0  0  0
    1.8316   -5.4308    4.2275 H   0  0  0  0  0  0  0  0  0  0  0  0
    0.3014   -6.5593    2.6346 H   0  0  0  0  0  0  0  0  0  0  0  0
   -0.7470   -5.2743    0.8181 H   0  0  0  0  0  0  0  0  0  0  0  0
   -1.0923   -3.1991   -0.3642 H   0  0  0  0  0  0  0  0  0  0  0  0
   -1.4935   -1.2012   -1.5735 H   0  0  0  0  0  0  0  0  0  0  0  0
   -5.2870    1.4643    0.6217 H   0  0  0  0  0  0  0  0  0  0  0  0
   -8.9103    1.6104    3.6559 H   0  0  0  0  0  0  0  0  0  0  0  0
  -11.2590    1.0693    4.2299 H   0  0  0  0  0  0  0  0  0  0  0  0
  1  2  4  0
  2  3  4  0
  3  4  4  0
  4  5  4  0
  5  6  4  0
  6  7  4  0
  7  8  4  0
  8  9  4  0
  9 10  4  0
 10 11  4  0
 11 12  4  0
 12 13  4  0
 13 14  1  0
 14 15  4  0
 15 16  4  0
 16 17  4  0
 17 18  4  0
 18 19  4  0
 19 20  4  0
 20 21  4  0
 21 22  4  0
 22 23  4  0
 23 24  4  0
 24 25  4  0
 25 26  1  0
 26 27  4  0
 27 28  4  0
 28 29  4  0
 29 30  4  0
 30 31  4  0
 31 32  4  0
 32 33  4  0
 33 34  4  0
 34 35  4  0
 35 36  4  0
 36 37  4  0
 37 38  4  0
 38 39  4  0
 39 40  4  0
 40 41  4  0
 41 42  4  0
 42 43  4  0
 43 44  4  0
 44 45  4  0
 45 46  4  0
 46 47  4  0
 25 48  4  0
 48 49  4  0
 49 50  4  0
 50 51  4  0
 51 52  4  0
 52 53  4  0
 53 54  4  0
 54 55  4  0
 55 56  4  0
 56 57  4  0
 13 58  4  0
 58 59  4  0
 59 60  4  0
 60 61  4  0
 61 62  4  0
 62 63  4  0
 63 64  4  0
 64 65  4  0
 65 66  4  0
 66  1  4  0
 64  3  4  0
 62  5  4  0
 60  7  4  0
 58  9  4  0
 57 14  4  0
 20 15  4  0
 57 22  4  0
 55 24  4  0
 47 26  4  0
 53 48  4  0
 44 27  4  0
 42 29  4  0
 40 31  4  0
 38 33  4  0
  1 67  1  0
  2 68  1  0
  6 69  1  0
 10 70  1  0
 11 71  1  0
 12 72  1  0
 16 73  1  0
 17 74  1  0
 18 75  1  0
 19 76  1  0
 21 77  1  0
 23 78  1  0
 30 79  1  0
 34 80  1  0
 35 81  1  0
 36 82  1  0
 37 83  1  0
 41 84  1  0
 45 85  1  0
 46 86  1  0
 47 87  1  0
 49 88  1  0
 50 89  1  0
 51 90  1  0
 52 91  1  0
 54 92  1  0
 56 93  1  0
 61 94  1  0
 65 95  1  0
 66 96  1  0
M  END
