
     RDKit          3D

100114  0  0  0  0  0  0  0  0999 V2000
  -11.0626    3.6552   -2.3400 C   0  0  0  0  0  0  0  0  0  0  0  0
   -9.7921    3.5357   -1.7811 C   0  0  0  0  0  0  0  0  0  0  0  0
   -9.2580    2.2659   -1.4966 C   0  0  0  0  0  0  0  0  0  0  0  0
   -7.9861    2.1086   -0.9359 C   0  0  0  0  0  0  0  0  0  0  0  0
   -7.4903    0.8278   -0.6685 C   0  0  0  0  0  0  0  0  0  0  0  0
   -6.2163    0.6243   -0.1057 C   0  0  0  0  0  0  0  0  0  0  0  0
   -5.7298   -0.6461    0.1564 C   0  0  0  0  0  0  0  0  0  0  0  0
   -4.5081   -0.7875    0.6934 N   0  0  0  0  0  0  0  0  0  0  0  0
   -4.0156   -2.0186    0.9572 C   0  0  0  0  0  0  0  0  0  0  0  0
   -2.7371   -2.1877    1.5235 C   0  0  0  0  0  0  0  0  0  0  0  0
   -1.8763   -1.0209    1.8565 C   0  0  0  0  0  0  0  0  0  0  0  0
   -1.9782   -0.4074    3.1472 C   0  0  0  0  0  0  0  0  0  0  0  0
   -2.8942   -0.8162    4.1492 C   0  0  0  0  0  0  0  0  0  0  0  0
   -2.9539   -0.1938    5.3986 C   0  0  0  0  0  0  0  0  0  0  0  0
   -2.0980    0.8587    5.6861 C   0  0  0  0  0  0  0  0  0  0  0  0
   -1.1876    1.2870    4.7231 C   0  0  0  0  0  0  0  0  0  0  0  0
   -1.1193    0.6691    3.4620 C   0  0  0  0  0  0  0  0  0  0  0  0
   -0.1935    1.1204    2.5144 C   0  0  0  0  0  0  0  0  0  0  0  0
   -0.0878    0.5375    1.2454 C   0  0  0  0  0  0  0  0  0  0  0  0
    0.8581    1.0262    0.3235 C   0  0  0  0  0  0  0  0  0  0  0  0
    1.0240    0.4854   -0.9740 C   0  0  0  0  0  0  0  0  0  0  0  0
    1.9748    0.9701   -1.9324 C   0  0  0  0  0  0  0  0  0  0  0  0
    2.8220    2.1476   -1.6040 C   0  0  0  0  0  0  0  0  0  0  0  0
    4.0656    1.9994   -0.9612 C   0  0  0  0  0  0  0  0  0  0  0  0
    4.5344    0.7787   -0.6189 N   0  0  0  0  0  0  0  0  0  0  0  0
    5.7194    0.6566   -0.0021 C   0  0  0  0  0  0  0  0  0  0  0  0
    6.1816   -0.6033    0.3410 C   0  0  0  0  0  0  0  0  0  0  0  0
    7.4144   -0.7867    0.9941 C   0  0  0  0  0  0  0  0  0  0  0  0
    7.8845   -2.0569    1.3448 C   0  0  0  0  0  0  0  0  0  0  0  0
    9.1156   -2.1945    1.9948 C   0  0  0  0  0  0  0  0  0  0  0  0
    9.6235   -3.4532    2.3637 C   0  0  0  0  0  0  0  0  0  0  0  0
   10.8533   -3.5534    3.0104 C   0  0  0  0  0  0  0  0  0  0  0  0
   11.5771   -2.4001    3.2897 C   0  0  0  0  0  0  0  0  0  0  0  0
   11.0669   -1.1516    2.9202 C   0  0  0  0  0  0  0  0  0  0  0  0
    9.8441   -1.0226    2.2746 C   0  0  0  0  0  0  0  0  0  0  0  0
    9.3988    0.2019    1.9404 N   0  0  0  0  0  0  0  0  0  0  0  0
    8.2155    0.3204    1.3158 C   0  0  0  0  0  0  0  0  0  0  0  0
    7.7528    1.5795    0.9689 C   0  0  0  0  0  0  0  0  0  0  0  0
    6.5189    1.7614    0.3164 C   0  0  0  0  0  0  0  0  0  0  0  0
    6.0432    3.0279   -0.0353 C   0  0  0  0  0  0  0  0  0  0  0  0
    4.8087    3.1657   -0.6794 C   0  0  0  0  0  0  0  0  0  0  0  0
    4.3225    4.4354   -1.0329 C   0  0  0  0  0  0  0  0  0  0  0  0
    3.0933    4.5675   -1.6664 C   0  0  0  0  0  0  0  0  0  0  0  0
    2.3473    3.4304   -1.9497 C   0  0  0  0  0  0  0  0  0  0  0  0
    2.0878    0.3490   -3.2183 C   0  0  0  0  0  0  0  0  0  0  0  0
    3.0136    0.7508   -4.2148 C   0  0  0  0  0  0  0  0  0  0  0  0
    3.0831    0.1204   -5.4595 C   0  0  0  0  0  0  0  0  0  0  0  0
    2.2282   -0.9329   -5.7475 C   0  0  0  0  0  0  0  0  0  0  0  0
    1.3098   -1.3552   -4.7894 C   0  0  0  0  0  0  0  0  0  0  0  0
    1.2322   -0.7303   -3.5324 C   0  0  0  0  0  0  0  0  0  0  0  0
    0.3011   -1.1780   -2.5879 C   0  0  0  0  0  0  0  0  0  0  0  0
    0.1897   -0.5916   -1.3208 C   0  0  0  0  0  0  0  0  0  0  0  0
   -0.7580   -1.0789   -0.3995 C   0  0  0  0  0  0  0  0  0  0  0  0
   -0.9247   -0.5377    0.8979 C   0  0  0  0  0  0  0  0  0  0  0  0
   -2.2433   -3.4815    1.7929 C   0  0  0  0  0  0  0  0  0  0  0  0
   -3.0013   -4.6092    1.5045 C   0  0  0  0  0  0  0  0  0  0  0  0
   -4.2637   -4.4566    0.9456 C   0  0  0  0  0  0  0  0  0  0  0  0
   -4.7720   -3.1758    0.6728 C   0  0  0  0  0  0  0  0  0  0  0  0
   -6.0443   -3.0181    0.1120 C   0  0  0  0  0  0  0  0  0  0  0  0
   -6.5452   -1.7409   -0.1556 C   0  0  0  0  0  0  0  0  0  0  0  0
   -7.8200   -1.5391   -0.7181 C   0  0  0  0  0  0  0  0  0  0  0  0
   -8.3087   -0.2694   -0.9811 C   0  0  0  0  0  0  0  0  0  0  0  0
   -9.5323   -0.1320   -1.5192 N   0  0  0  0  0  0  0  0  0  0  0  0
  -10.0012    1.1026   -1.7735 C   0  0  0  0  0  0  0  0  0  0  0  0
  -11.2647    1.2509   -2.3303 C   0  0  0  0  0  0  0  0  0  0  0  0
  -11.8011    2.5104   -2.6154 C   0  0  0  0  0  0  0  0  0  0  0  0
  -11.4737    4.6373   -2.5592 H   0  0  0  0  0  0  0  0  0  0  0  0
   -9.2202    4.4360   -1.5683 H   0  0  0  0  0  0  0  0  0  0  0  0
   -7.3811    2.9831   -0.7075 H   0  0  0  0  0  0  0  0  0  0  0  0
   -5.5822    1.4748    0.1370 H   0  0  0  0  0  0  0  0  0  0  0  0
   -3.5889   -1.6324    3.9620 H   0  0  0  0  0  0  0  0  0  0  0  0
   -3.6724   -0.5336    6.1395 H   0  0  0  0  0  0  0  0  0  0  0  0
   -2.1386    1.3484    6.6550 H   0  0  0  0  0  0  0  0  0  0  0  0
   -0.5237    2.1145    4.9652 H   0  0  0  0  0  0  0  0  0  0  0  0
    0.4646    1.9498    2.7712 H   0  0  0  0  0  0  0  0  0  0  0  0
    1.4926    1.8545    0.6351 H   0  0  0  0  0  0  0  0  0  0  0  0
    5.5607   -1.4613    0.0915 H   0  0  0  0  0  0  0  0  0  0  0  0
    7.2910   -2.9381    1.1120 H   0  0  0  0  0  0  0  0  0  0  0  0
    9.0623   -4.3596    2.1481 H   0  0  0  0  0  0  0  0  0  0  0  0
   11.2439   -4.5271    3.2947 H   0  0  0  0  0  0  0  0  0  0  0  0
   12.5378   -2.4650    3.7940 H   0  0  0  0  0  0  0  0  0  0  0  0
   11.6391   -0.2539    3.1422 H   0  0  0  0  0  0  0  0  0  0  0  0
    8.3719    2.4390    1.2164 H   0  0  0  0  0  0  0  0  0  0  0  0
    6.6370    3.9096    0.1958 H   0  0  0  0  0  0  0  0  0  0  0  0
    4.9011    5.3305   -0.8135 H   0  0  0  0  0  0  0  0  0  0  0  0
    2.7155    5.5499   -1.9366 H   0  0  0  0  0  0  0  0  0  0  0  0
    1.3828    3.5333   -2.4446 H   0  0  0  0  0  0  0  0  0  0  0  0
    3.7083    1.5666   -4.0256 H   0  0  0  0  0  0  0  0  0  0  0  0
    3.8085    0.4543   -6.1964 H   0  0  0  0  0  0  0  0  0  0  0  0
    2.2768   -1.4290   -6.7127 H   0  0  0  0  0  0  0  0  0  0  0  0
    0.6482   -2.1845   -5.0317 H   0  0  0  0  0  0  0  0  0  0  0  0
   -0.3542   -2.0095   -2.8445 H   0  0  0  0  0  0  0  0  0  0  0  0
   -1.3897   -1.9094   -0.7102 H   0  0  0  0  0  0  0  0  0  0  0  0
   -1.2541   -3.6004    2.2324 H   0  0  0  0  0  0  0  0  0  0  0  0
   -2.6079   -5.6001    1.7146 H   0  0  0  0  0  0  0  0  0  0  0  0
   -4.8527   -5.3443    0.7238 H   0  0  0  0  0  0  0  0  0  0  0  0
   -6.6492   -3.8927   -0.1173 H   0  0  0  0  0  0  0  0  0  0  0  0
   -8.4518   -2.3912   -0.9596 H   0  0  0  0  0  0  0  0  0  0  0  0
  -11.8486    0.3599   -2.5489 H   0  0  0  0  0  0  0  0  0  0  0  0
  -12.7935    2.5901   -3.0515 H   0  0  0  0  0  0  0  0  0  0  0  0
  1  2  4  0
  2  3  4  0
  3  4  4  0
  4  5  4  0
  5  6  4  0
  6  7  4  0
  7  8  4  0
  8  9  4  0
  9 10  4  0
 10 11  1  0
 11 12  4  0
 12 13  4  0
 13 14  4  0
 14 15  4  0
 15 16  4  0
 16 17  4  0
 17 18  4  0
 18 19  4  0
 19 20  4  0
 20 21  4  0
 21 22  4  0
 22 23  1  0
 23 24  4  0
 24 25  4  0
 25 26  4  0
 26 27  4  0
 27 28  4  0
 28 29  4  0
 29 30  4  0
 30 31  4  0
 31 32  4  0
 32 33  4  0
 33 34  4  0
 34 35  4  0
 35 36  4  0
 36 37  4  0
 37 38  4  0
 38 39  4  0
 39 40  4  0
 40 41  4  0
 41 42  4  0
 42 43  4  0
 43 44  4  0
 22 45  4  0
 45 46  4  0
 46 47  4  0
 47 48  4  0
 48 49  4  0
 49 50  4  0
 50 51  4  0
 51 52  4  0
 52 53  4  0
 53 54  4  0
 10 55  4  0
 55 56  4  0
 56 57  4  0
 57 58  4  0
 58 59  4  0
 59 60  4  0
 60 61  4  0
 61 62  4  0
 62 63  4  0
 63 64  4  0
 64 65  4  0
 65 66  4  0
 66  1  4  0
 64  3  4  0
 62  5  4  0
 60  7  4  0
 58  9  4  0
 54 11  4  0
 17 12  4  0
 54 19  4  0
 52 21  4  0
 44 23  4  0
 50 45  4  0
 41 24  4  0
 39 26  4  0
 37 28  4  0
 35 30  4  0
  1 67  1  0
  2 68  1  0
  4 69  1  0
  6 70  1  0
 13 71  1  0
 14 72  1  0
 15 73  1  0
 16 74  1  0
 18 75  1  0
 20 76  1  0
 27 77  1  0
 29 78  1  0
 31 79  1  0
 32 80  1  0
 33 81  1  0
 34 82  1  0
 38 83  1  0
 40 84  1  0
 42 85  1  0
 43 86  1  0
 44 87  1  0
 46 88  1  0
 47 89  1  0
 48 90  1  0
 49 91  1  0
 51 92  1  0
 53 93  1  0
 55 94  1  0
 56 95  1  0
 57 96  1  0
 59 97  1  0
 61 98  1  0
 65 99  1  0
 66100  1  0
M  END
