
     RDKit          3D

100114  0  0  0  0  0  0  0  0999 V2000
    7.7802    4.6834   -0.7956 C   0  0  0  0  0  0  0  0  0  0  0  0
    6.5763    5.1427   -1.3172 C   0  0  0  0  0  0  0  0  0  0  0  0
    5.5079    4.2567   -1.4848 C   0  0  0  0  0  0  0  0  0  0  0  0
    5.6113    2.9149   -1.1435 C   0  0  0  0  0  0  0  0  0  0  0  0
    4.5569    2.1023   -1.3246 N   0  0  0  0  0  0  0  0  0  0  0  0
    4.6382    0.7924   -1.0038 C   0  0  0  0  0  0  0  0  0  0  0  0
    5.8199    0.2527   -0.4689 C   0  0  0  0  0  0  0  0  0  0  0  0
    6.9169    1.1023   -0.2803 C   0  0  0  0  0  0  0  0  0  0  0  0
    6.8292    2.4556   -0.6181 C   0  0  0  0  0  0  0  0  0  0  0  0
    7.9092    3.3410   -0.4459 C   0  0  0  0  0  0  0  0  0  0  0  0
    5.8979   -1.1076   -0.1272 C   0  0  0  0  0  0  0  0  0  0  0  0
    4.8351   -1.9748   -0.2974 C   0  0  0  0  0  0  0  0  0  0  0  0
    4.9925   -3.2575    0.0775 N   0  0  0  0  0  0  0  0  0  0  0  0
    3.9701   -4.1212   -0.0603 C   0  0  0  0  0  0  0  0  0  0  0  0
    4.1169   -5.4433    0.3419 C   0  0  0  0  0  0  0  0  0  0  0  0
    3.0756   -6.3712    0.2237 C   0  0  0  0  0  0  0  0  0  0  0  0
    1.8537   -5.9766   -0.3099 C   0  0  0  0  0  0  0  0  0  0  0  0
    1.6815   -4.6587   -0.7246 C   0  0  0  0  0  0  0  0  0  0  0  0
    2.7351   -3.7339   -0.6001 C   0  0  0  0  0  0  0  0  0  0  0  0
    2.5958   -2.4016   -0.9980 C   0  0  0  0  0  0  0  0  0  0  0  0
    3.6461   -1.4688   -0.8430 C   0  0  0  0  0  0  0  0  0  0  0  0
    3.5494   -0.0767   -1.1929 C   0  0  0  0  0  0  0  0  0  0  0  0
    2.2589    0.4433   -1.7387 C   0  0  0  0  0  0  0  0  0  0  0  0
    2.0605    0.5278   -3.1546 C   0  0  0  0  0  0  0  0  0  0  0  0
    3.0875    0.3384   -4.1126 C   0  0  0  0  0  0  0  0  0  0  0  0
    2.8459    0.4277   -5.4857 C   0  0  0  0  0  0  0  0  0  0  0  0
    1.5668    0.7033   -5.9450 C   0  0  0  0  0  0  0  0  0  0  0  0
    0.5321    0.8828   -5.0293 C   0  0  0  0  0  0  0  0  0  0  0  0
    0.7630    0.7945   -3.6447 C   0  0  0  0  0  0  0  0  0  0  0  0
   -0.3023    0.9342   -2.7466 C   0  0  0  0  0  0  0  0  0  0  0  0
   -0.1165    0.8597   -1.3596 C   0  0  0  0  0  0  0  0  0  0  0  0
   -1.2202    0.9050   -0.4902 C   0  0  0  0  0  0  0  0  0  0  0  0
   -1.0957    0.8126    0.9176 C   0  0  0  0  0  0  0  0  0  0  0  0
   -2.2069    0.6812    1.8140 C   0  0  0  0  0  0  0  0  0  0  0  0
   -3.5447    0.3227    1.2516 C   0  0  0  0  0  0  0  0  0  0  0  0
   -3.7794   -1.0348    0.8376 C   0  0  0  0  0  0  0  0  0  0  0  0
   -2.8361   -2.0784    0.9701 C   0  0  0  0  0  0  0  0  0  0  0  0
   -3.0995   -3.3672    0.5005 C   0  0  0  0  0  0  0  0  0  0  0  0
   -2.1521   -4.4027    0.6041 C   0  0  0  0  0  0  0  0  0  0  0  0
   -2.4423   -5.6708    0.1093 C   0  0  0  0  0  0  0  0  0  0  0  0
   -3.6778   -5.9055   -0.4825 C   0  0  0  0  0  0  0  0  0  0  0  0
   -4.6151   -4.8701   -0.5743 C   0  0  0  0  0  0  0  0  0  0  0  0
   -4.3494   -3.5948   -0.0913 C   0  0  0  0  0  0  0  0  0  0  0  0
   -5.2773   -2.6267   -0.2011 N   0  0  0  0  0  0  0  0  0  0  0  0
   -5.0007   -1.3881    0.2465 C   0  0  0  0  0  0  0  0  0  0  0  0
   -5.9670   -0.4094    0.1078 C   0  0  0  0  0  0  0  0  0  0  0  0
   -5.7590    0.9163    0.5238 C   0  0  0  0  0  0  0  0  0  0  0  0
   -6.7613    1.8819    0.3696 C   0  0  0  0  0  0  0  0  0  0  0  0
   -6.5417    3.2000    0.7787 C   0  0  0  0  0  0  0  0  0  0  0  0
   -7.5226    4.1991    0.6424 C   0  0  0  0  0  0  0  0  0  0  0  0
   -7.2612    5.5016    1.0617 C   0  0  0  0  0  0  0  0  0  0  0  0
   -6.0239    5.8084    1.6160 C   0  0  0  0  0  0  0  0  0  0  0  0
   -5.0548    4.8100    1.7488 C   0  0  0  0  0  0  0  0  0  0  0  0
   -5.2913    3.5052    1.3388 C   0  0  0  0  0  0  0  0  0  0  0  0
   -4.3283    2.5817    1.4878 N   0  0  0  0  0  0  0  0  0  0  0  0
   -4.5375    1.3056    1.0980 C   0  0  0  0  0  0  0  0  0  0  0  0
   -2.0048    0.7044    3.2306 C   0  0  0  0  0  0  0  0  0  0  0  0
   -3.0512    0.6234    4.1830 C   0  0  0  0  0  0  0  0  0  0  0  0
   -2.8040    0.6424    5.5573 C   0  0  0  0  0  0  0  0  0  0  0  0
   -1.5009    0.7367    6.0221 C   0  0  0  0  0  0  0  0  0  0  0  0
   -0.4486    0.8066    5.1119 C   0  0  0  0  0  0  0  0  0  0  0  0
   -0.6847    0.7887    3.7262 C   0  0  0  0  0  0  0  0  0  0  0  0
    0.3932    0.8145    2.8322 C   0  0  0  0  0  0  0  0  0  0  0  0
    0.2044    0.8023    1.4439 C   0  0  0  0  0  0  0  0  0  0  0  0
    1.3067    0.7264    0.5740 C   0  0  0  0  0  0  0  0  0  0  0  0
    1.1734    0.6882   -0.8358 C   0  0  0  0  0  0  0  0  0  0  0  0
    8.6150    5.3667   -0.6629 H   0  0  0  0  0  0  0  0  0  0  0  0
    6.4614    6.1868   -1.5964 H   0  0  0  0  0  0  0  0  0  0  0  0
    4.5679    4.6211   -1.8935 H   0  0  0  0  0  0  0  0  0  0  0  0
    7.8443    0.7094    0.1314 H   0  0  0  0  0  0  0  0  0  0  0  0
    8.8541    2.9872   -0.0403 H   0  0  0  0  0  0  0  0  0  0  0  0
    6.8183   -1.5104    0.2929 H   0  0  0  0  0  0  0  0  0  0  0  0
    5.0691   -5.7597    0.7609 H   0  0  0  0  0  0  0  0  0  0  0  0
    3.2268   -7.3977    0.5483 H   0  0  0  0  0  0  0  0  0  0  0  0
    1.0371   -6.6879   -0.4049 H   0  0  0  0  0  0  0  0  0  0  0  0
    0.7245   -4.3529   -1.1437 H   0  0  0  0  0  0  0  0  0  0  0  0
    1.6447   -2.0892   -1.4256 H   0  0  0  0  0  0  0  0  0  0  0  0
    4.1070    0.1331   -3.7948 H   0  0  0  0  0  0  0  0  0  0  0  0
    3.6624    0.2863   -6.1889 H   0  0  0  0  0  0  0  0  0  0  0  0
    1.3722    0.7764   -7.0116 H   0  0  0  0  0  0  0  0  0  0  0  0
   -0.4669    1.0901   -5.4071 H   0  0  0  0  0  0  0  0  0  0  0  0
   -1.3066    1.0939   -3.1375 H   0  0  0  0  0  0  0  0  0  0  0  0
   -2.2135    0.9920   -0.9285 H   0  0  0  0  0  0  0  0  0  0  0  0
   -1.8712   -1.8883    1.4365 H   0  0  0  0  0  0  0  0  0  0  0  0
   -1.1846   -4.2211    1.0682 H   0  0  0  0  0  0  0  0  0  0  0  0
   -1.7092   -6.4692    0.1872 H   0  0  0  0  0  0  0  0  0  0  0  0
   -3.9200   -6.8910   -0.8717 H   0  0  0  0  0  0  0  0  0  0  0  0
   -5.5799   -5.0630   -1.0369 H   0  0  0  0  0  0  0  0  0  0  0  0
   -6.9148   -0.6937   -0.3467 H   0  0  0  0  0  0  0  0  0  0  0  0
   -7.7168    1.6072   -0.0719 H   0  0  0  0  0  0  0  0  0  0  0  0
   -8.4925    3.9661    0.2092 H   0  0  0  0  0  0  0  0  0  0  0  0
   -8.0190    6.2731    0.9554 H   0  0  0  0  0  0  0  0  0  0  0  0
   -5.8054    6.8204    1.9461 H   0  0  0  0  0  0  0  0  0  0  0  0
   -4.0882    5.0551    2.1836 H   0  0  0  0  0  0  0  0  0  0  0  0
   -4.0884    0.5624    3.8611 H   0  0  0  0  0  0  0  0  0  0  0  0
   -3.6330    0.5886    6.2580 H   0  0  0  0  0  0  0  0  0  0  0  0
   -1.3018    0.7540    7.0897 H   0  0  0  0  0  0  0  0  0  0  0  0
    0.5676    0.8705    5.4955 H   0  0  0  0  0  0  0  0  0  0  0  0
    1.4084    0.8315    3.2271 H   0  0  0  0  0  0  0  0  0  0  0  0
    2.3021    0.6722    1.0127 H   0  0  0  0  0  0  0  0  0  0  0  0
  1  2  4  0
  2  3  4  0
  3  4  4  0
  4  5  4  0
  5  6  4  0
  6  7  4  0
  7  8  4  0
  8  9  4  0
  9 10  4  0
  7 11  4  0
 11 12  4  0
 12 13  4  0
 13 14  4  0
 14 15  4  0
 15 16  4  0
 16 17  4  0
 17 18  4  0
 18 19  4  0
 19 20  4  0
 20 21  4  0
 21 22  4  0
 22 23  1  0
 23 24  4  0
 24 25  4  0
 25 26  4  0
 26 27  4  0
 27 28  4  0
 28 29  4  0
 29 30  4  0
 30 31  4  0
 31 32  4  0
 32 33  4  0
 33 34  4  0
 34 35  1  0
 35 36  4  0
 36 37  4  0
 37 38  4  0
 38 39  4  0
 39 40  4  0
 40 41  4  0
 41 42  4  0
 42 43  4  0
 43 44  4  0
 44 45  4  0
 45 46  4  0
 46 47  4  0
 47 48  4  0
 48 49  4  0
 49 50  4  0
 50 51  4  0
 51 52  4  0
 52 53  4  0
 53 54  4  0
 54 55  4  0
 55 56  4  0
 34 57  4  0
 57 58  4  0
 58 59  4  0
 59 60  4  0
 60 61  4  0
 61 62  4  0
 62 63  4  0
 63 64  4  0
 64 65  4  0
 65 66  4  0
 10  1  4  0
 21 12  4  0
 66 23  4  0
  9  4  4  0
 19 14  4  0
 29 24  4  0
 66 31  4  0
 22  6  4  0
 64 33  4  0
 56 35  4  0
 62 57  4  0
 45 36  4  0
 56 47  4  0
 43 38  4  0
 54 49  4  0
  1 67  1  0
  2 68  1  0
  3 69  1  0
  8 70  1  0
 10 71  1  0
 11 72  1  0
 15 73  1  0
 16 74  1  0
 17 75  1  0
 18 76  1  0
 20 77  1  0
 25 78  1  0
 26 79  1  0
 27 80  1  0
 28 81  1  0
 30 82  1  0
 32 83  1  0
 37 84  1  0
 39 85  1  0
 40 86  1  0
 41 87  1  0
 42 88  1  0
 46 89  1  0
 48 90  1  0
 50 91  1  0
 51 92  1  0
 52 93  1  0
 53 94  1  0
 58 95  1  0
 59 96  1  0
 60 97  1  0
 61 98  1  0
 63 99  1  0
 65100  1  0
M  END
