
     RDKit          3D

100114  0  0  0  0  0  0  0  0999 V2000
    5.1822    7.0483    3.0311 C   0  0  0  0  0  0  0  0  0  0  0  0
    6.3167    7.2760    2.2610 C   0  0  0  0  0  0  0  0  0  0  0  0
    6.7662    6.2912    1.3760 C   0  0  0  0  0  0  0  0  0  0  0  0
    6.1085    5.0761    1.2383 C   0  0  0  0  0  0  0  0  0  0  0  0
    6.5834    4.1628    0.3725 N   0  0  0  0  0  0  0  0  0  0  0  0
    5.9432    2.9884    0.2433 C   0  0  0  0  0  0  0  0  0  0  0  0
    6.4286    2.0431   -0.6462 C   0  0  0  0  0  0  0  0  0  0  0  0
    5.7993    0.7953   -0.8187 C   0  0  0  0  0  0  0  0  0  0  0  0
    6.2846   -0.1664   -1.7099 C   0  0  0  0  0  0  0  0  0  0  0  0
    5.6311   -1.3963   -1.8489 C   0  0  0  0  0  0  0  0  0  0  0  0
    6.1152   -2.3692   -2.7392 C   0  0  0  0  0  0  0  0  0  0  0  0
    5.4653   -3.5902   -2.8706 C   0  0  0  0  0  0  0  0  0  0  0  0
    4.3290   -3.8425   -2.1120 C   0  0  0  0  0  0  0  0  0  0  0  0
    3.8291   -2.8762   -1.2138 C   0  0  0  0  0  0  0  0  0  0  0  0
    2.6128   -3.2077   -0.4248 C   0  0  0  0  0  0  0  0  0  0  0  0
    2.7473   -3.8062    0.8702 C   0  0  0  0  0  0  0  0  0  0  0  0
    3.9925   -4.0793    1.4927 C   0  0  0  0  0  0  0  0  0  0  0  0
    4.0782   -4.6669    2.7572 C   0  0  0  0  0  0  0  0  0  0  0  0
    2.9189   -4.9989    3.4415 C   0  0  0  0  0  0  0  0  0  0  0  0
    1.6791   -4.7428    2.8591 C   0  0  0  0  0  0  0  0  0  0  0  0
    1.5805   -4.1541    1.5856 C   0  0  0  0  0  0  0  0  0  0  0  0
    0.3216   -3.9144    1.0211 C   0  0  0  0  0  0  0  0  0  0  0  0
    0.1737   -3.3287   -0.2430 C   0  0  0  0  0  0  0  0  0  0  0  0
   -1.1128   -3.1148   -0.7760 C   0  0  0  0  0  0  0  0  0  0  0  0
   -1.3371   -2.5228   -2.0427 C   0  0  0  0  0  0  0  0  0  0  0  0
   -2.6360   -2.3068   -2.6120 C   0  0  0  0  0  0  0  0  0  0  0  0
   -3.8473   -2.7797   -1.8904 C   0  0  0  0  0  0  0  0  0  0  0  0
   -4.3330   -4.0738   -2.1741 C   0  0  0  0  0  0  0  0  0  0  0  0
   -5.4566   -4.5720   -1.5268 C   0  0  0  0  0  0  0  0  0  0  0  0
   -6.1057   -3.7836   -0.5852 C   0  0  0  0  0  0  0  0  0  0  0  0
   -5.6334   -2.4942   -0.2889 C   0  0  0  0  0  0  0  0  0  0  0  0
   -6.2779   -1.7006    0.6662 C   0  0  0  0  0  0  0  0  0  0  0  0
   -5.7974   -0.4217    0.9612 C   0  0  0  0  0  0  0  0  0  0  0  0
   -6.4099    0.4041    1.9221 C   0  0  0  0  0  0  0  0  0  0  0  0
   -5.9252    1.6694    2.2106 C   0  0  0  0  0  0  0  0  0  0  0  0
   -6.5452    2.4155    3.1393 N   0  0  0  0  0  0  0  0  0  0  0  0
   -6.0715    3.6434    3.4164 C   0  0  0  0  0  0  0  0  0  0  0  0
   -6.7085    4.4191    4.3758 C   0  0  0  0  0  0  0  0  0  0  0  0
   -6.2588    5.7019    4.7032 C   0  0  0  0  0  0  0  0  0  0  0  0
   -5.1454    6.2298    4.0602 C   0  0  0  0  0  0  0  0  0  0  0  0
   -4.4868    5.4732    3.0934 C   0  0  0  0  0  0  0  0  0  0  0  0
   -4.9440    4.1834    2.7686 C   0  0  0  0  0  0  0  0  0  0  0  0
   -4.3075    3.3956    1.8039 C   0  0  0  0  0  0  0  0  0  0  0  0
   -4.7937    2.1170    1.5101 C   0  0  0  0  0  0  0  0  0  0  0  0
   -4.1831    1.2906    0.5489 C   0  0  0  0  0  0  0  0  0  0  0  0
   -4.6676    0.0246    0.2642 C   0  0  0  0  0  0  0  0  0  0  0  0
   -4.0467   -0.7270   -0.6567 N   0  0  0  0  0  0  0  0  0  0  0  0
   -4.4975   -1.9689   -0.9413 C   0  0  0  0  0  0  0  0  0  0  0  0
   -2.7714   -1.6715   -3.8888 C   0  0  0  0  0  0  0  0  0  0  0  0
   -4.0167   -1.3991   -4.5103 C   0  0  0  0  0  0  0  0  0  0  0  0
   -4.1028   -0.7812   -5.7602 C   0  0  0  0  0  0  0  0  0  0  0  0
   -2.9445   -0.4153   -6.4291 C   0  0  0  0  0  0  0  0  0  0  0  0
   -1.7047   -0.6655   -5.8447 C   0  0  0  0  0  0  0  0  0  0  0  0
   -1.6055   -1.2851   -4.5862 C   0  0  0  0  0  0  0  0  0  0  0  0
   -0.3465   -1.5231   -4.0214 C   0  0  0  0  0  0  0  0  0  0  0  0
   -0.1982   -2.1311   -2.7678 C   0  0  0  0  0  0  0  0  0  0  0  0
    1.0882   -2.3520   -2.2380 C   0  0  0  0  0  0  0  0  0  0  0  0
    1.3131   -2.9579   -0.9781 C   0  0  0  0  0  0  0  0  0  0  0  0
    4.4780   -1.6347   -1.0711 C   0  0  0  0  0  0  0  0  0  0  0  0
    4.0175   -0.6984   -0.2124 N   0  0  0  0  0  0  0  0  0  0  0  0
    4.6492    0.4780   -0.0858 C   0  0  0  0  0  0  0  0  0  0  0  0
    4.1602    1.4226    0.8018 C   0  0  0  0  0  0  0  0  0  0  0  0
    4.7899    2.6689    0.9776 C   0  0  0  0  0  0  0  0  0  0  0  0
    4.3028    3.6246    1.8761 C   0  0  0  0  0  0  0  0  0  0  0  0
    4.9598    4.8512    2.0207 C   0  0  0  0  0  0  0  0  0  0  0  0
    4.5028    5.8379    2.9129 C   0  0  0  0  0  0  0  0  0  0  0  0
    4.8275    7.8096    3.7211 H   0  0  0  0  0  0  0  0  0  0  0  0
    6.8557    8.2163    2.3440 H   0  0  0  0  0  0  0  0  0  0  0  0
    7.6546    6.4760    0.7767 H   0  0  0  0  0  0  0  0  0  0  0  0
    7.3223    2.2877   -1.2162 H   0  0  0  0  0  0  0  0  0  0  0  0
    7.1768    0.0438   -2.2957 H   0  0  0  0  0  0  0  0  0  0  0  0
    7.0059   -2.1796   -3.3349 H   0  0  0  0  0  0  0  0  0  0  0  0
    5.8425   -4.3425   -3.5583 H   0  0  0  0  0  0  0  0  0  0  0  0
    3.8213   -4.8006   -2.2121 H   0  0  0  0  0  0  0  0  0  0  0  0
    4.9244   -3.8218    0.9940 H   0  0  0  0  0  0  0  0  0  0  0  0
    5.0511   -4.8559    3.2029 H   0  0  0  0  0  0  0  0  0  0  0  0
    2.9766   -5.4524    4.4271 H   0  0  0  0  0  0  0  0  0  0  0  0
    0.7796   -5.0071    3.4115 H   0  0  0  0  0  0  0  0  0  0  0  0
   -0.5707   -4.1891    1.5828 H   0  0  0  0  0  0  0  0  0  0  0  0
   -1.9700   -3.4137   -0.1742 H   0  0  0  0  0  0  0  0  0  0  0  0
   -3.8218   -4.6926   -2.9100 H   0  0  0  0  0  0  0  0  0  0  0  0
   -5.8218   -5.5700   -1.7543 H   0  0  0  0  0  0  0  0  0  0  0  0
   -6.9833   -4.1808   -0.0794 H   0  0  0  0  0  0  0  0  0  0  0  0
   -7.1549   -2.0800    1.1864 H   0  0  0  0  0  0  0  0  0  0  0  0
   -7.2868    0.0556    2.4635 H   0  0  0  0  0  0  0  0  0  0  0  0
   -7.5804    4.0130    4.8833 H   0  0  0  0  0  0  0  0  0  0  0  0
   -6.7813    6.2818    5.4594 H   0  0  0  0  0  0  0  0  0  0  0  0
   -4.7907    7.2265    4.3101 H   0  0  0  0  0  0  0  0  0  0  0  0
   -3.6161    5.8929    2.5947 H   0  0  0  0  0  0  0  0  0  0  0  0
   -3.4329    3.7765    1.2813 H   0  0  0  0  0  0  0  0  0  0  0  0
   -3.3054    1.6364    0.0063 H   0  0  0  0  0  0  0  0  0  0  0  0
   -4.9487   -1.6590   -4.0128 H   0  0  0  0  0  0  0  0  0  0  0  0
   -5.0759   -0.5837   -6.2015 H   0  0  0  0  0  0  0  0  0  0  0  0
   -3.0023    0.0677   -7.4005 H   0  0  0  0  0  0  0  0  0  0  0  0
   -0.8070   -0.3685   -6.3830 H   0  0  0  0  0  0  0  0  0  0  0  0
    0.5447   -1.2213   -4.5707 H   0  0  0  0  0  0  0  0  0  0  0  0
    1.9447   -2.0302   -2.8287 H   0  0  0  0  0  0  0  0  0  0  0  0
    3.2642    1.1753    1.3684 H   0  0  0  0  0  0  0  0  0  0  0  0
    3.4128    3.4116    2.4641 H   0  0  0  0  0  0  0  0  0  0  0  0
    3.6158    5.6668    3.5187 H   0  0  0  0  0  0  0  0  0  0  0  0
  1  2  4  0
  2  3  4  0
  3  4  4  0
  4  5  4  0
  5  6  4  0
  6  7  4  0
  7  8  4  0
  8  9  4  0
  9 10  4  0
 10 11  4  0
 11 12  4  0
 12 13  4  0
 13 14  4  0
 14 15  1  0
 15 16  4  0
 16 17  4  0
 17 18  4  0
 18 19  4  0
 19 20  4  0
 20 21  4  0
 21 22  4  0
 22 23  4  0
 23 24  4  0
 24 25  4  0
 25 26  4  0
 26 27  1  0
 27 28  4  0
 28 29  4  0
 29 30  4  0
 30 31  4  0
 31 32  4  0
 32 33  4  0
 33 34  4  0
 34 35  4  0
 35 36  4  0
 36 37  4  0
 37 38  4  0
 38 39  4  0
 39 40  4  0
 40 41  4  0
 41 42  4  0
 42 43  4  0
 43 44  4  0
 44 45  4  0
 45 46  4  0
 46 47  4  0
 47 48  4  0
 26 49  4  0
 49 50  4  0
 50 51  4  0
 51 52  4  0
 52 53  4  0
 53 54  4  0
 54 55  4  0
 55 56  4  0
 56 57  4  0
 57 58  4  0
 14 59  4  0
 59 60  4  0
 60 61  4  0
 61 62  4  0
 62 63  4  0
 63 64  4  0
 64 65  4  0
 65 66  4  0
 66  1  4  0
 65  4  4  0
 63  6  4  0
 61  8  4  0
 59 10  4  0
 58 15  4  0
 21 16  4  0
 58 23  4  0
 56 25  4  0
 48 27  4  0
 54 49  4  0
 48 31  4  0
 46 33  4  0
 44 35  4  0
 42 37  4  0
  1 67  1  0
  2 68  1  0
  3 69  1  0
  7 70  1  0
  9 71  1  0
 11 72  1  0
 12 73  1  0
 13 74  1  0
 17 75  1  0
 18 76  1  0
 19 77  1  0
 20 78  1  0
 22 79  1  0
 24 80  1  0
 28 81  1  0
 29 82  1  0
 30 83  1  0
 32 84  1  0
 34 85  1  0
 38 86  1  0
 39 87  1  0
 40 88  1  0
 41 89  1  0
 43 90  1  0
 45 91  1  0
 50 92  1  0
 51 93  1  0
 52 94  1  0
 53 95  1  0
 55 96  1  0
 57 97  1  0
 62 98  1  0
 64 99  1  0
 66100  1  0
M  END
