
     RDKit          3D

100114  0  0  0  0  0  0  0  0999 V2000
   -3.6967    5.4048   -2.8565 C   0  0  0  0  0  0  0  0  0  0  0  0
   -2.5716    4.6988   -3.2525 C   0  0  0  0  0  0  0  0  0  0  0  0
   -2.4481    3.3552   -2.9025 C   0  0  0  0  0  0  0  0  0  0  0  0
   -3.4524    2.6927   -2.1512 C   0  0  0  0  0  0  0  0  0  0  0  0
   -4.5873    3.4229   -1.7544 C   0  0  0  0  0  0  0  0  0  0  0  0
   -4.6875    4.7607   -2.1135 C   0  0  0  0  0  0  0  0  0  0  0  0
   -5.5847    2.8888   -1.0353 N   0  0  0  0  0  0  0  0  0  0  0  0
   -5.5276    1.6023   -0.6701 C   0  0  0  0  0  0  0  0  0  0  0  0
   -6.5736    1.0894    0.0820 C   0  0  0  0  0  0  0  0  0  0  0  0
   -6.5943   -0.2475    0.5177 C   0  0  0  0  0  0  0  0  0  0  0  0
   -7.6422   -0.7670    1.2870 C   0  0  0  0  0  0  0  0  0  0  0  0
   -7.6157   -2.1045    1.6975 C   0  0  0  0  0  0  0  0  0  0  0  0
   -8.6463   -2.6652    2.4728 C   0  0  0  0  0  0  0  0  0  0  0  0
   -8.5863   -4.0017    2.8620 C   0  0  0  0  0  0  0  0  0  0  0  0
   -7.5006   -4.7801    2.4783 C   0  0  0  0  0  0  0  0  0  0  0  0
   -6.4787   -4.2170    1.7081 C   0  0  0  0  0  0  0  0  0  0  0  0
   -6.5127   -2.8878    1.3083 C   0  0  0  0  0  0  0  0  0  0  0  0
   -5.5035   -2.3941    0.5706 N   0  0  0  0  0  0  0  0  0  0  0  0
   -5.5412   -1.1074    0.1855 C   0  0  0  0  0  0  0  0  0  0  0  0
   -4.5011   -0.5909   -0.5692 C   0  0  0  0  0  0  0  0  0  0  0  0
   -4.4587    0.7600   -1.0064 C   0  0  0  0  0  0  0  0  0  0  0  0
   -3.3911    1.3263   -1.7618 C   0  0  0  0  0  0  0  0  0  0  0  0
   -2.2082    0.4873   -2.1108 C   0  0  0  0  0  0  0  0  0  0  0  0
   -2.1803   -0.2295   -3.3498 C   0  0  0  0  0  0  0  0  0  0  0  0
   -3.2000   -0.1534   -4.3313 C   0  0  0  0  0  0  0  0  0  0  0  0
   -3.1293   -0.8708   -5.5275 C   0  0  0  0  0  0  0  0  0  0  0  0
   -2.0390   -1.6906   -5.7777 C   0  0  0  0  0  0  0  0  0  0  0  0
   -1.0240   -1.7932   -4.8292 C   0  0  0  0  0  0  0  0  0  0  0  0
   -1.0827   -1.0750   -3.6221 C   0  0  0  0  0  0  0  0  0  0  0  0
   -0.0576   -1.2086   -2.6778 C   0  0  0  0  0  0  0  0  0  0  0  0
   -0.0745   -0.5149   -1.4607 C   0  0  0  0  0  0  0  0  0  0  0  0
    0.9567   -0.7066   -0.5230 C   0  0  0  0  0  0  0  0  0  0  0  0
    0.9952   -0.0448    0.7284 C   0  0  0  0  0  0  0  0  0  0  0  0
    2.0030   -0.2657    1.7234 C   0  0  0  0  0  0  0  0  0  0  0  0
    3.0511   -1.3018    1.4921 C   0  0  0  0  0  0  0  0  0  0  0  0
    4.3169   -0.9429    0.9487 C   0  0  0  0  0  0  0  0  0  0  0  0
    4.6945    0.3793    0.5928 C   0  0  0  0  0  0  0  0  0  0  0  0
    5.9419    0.6917    0.0730 C   0  0  0  0  0  0  0  0  0  0  0  0
    6.2359    1.9661   -0.2358 N   0  0  0  0  0  0  0  0  0  0  0  0
    7.4492    2.2588   -0.7366 C   0  0  0  0  0  0  0  0  0  0  0  0
    7.7572    3.5746   -1.0556 C   0  0  0  0  0  0  0  0  0  0  0  0
    9.0030    3.9332   -1.5796 C   0  0  0  0  0  0  0  0  0  0  0  0
    9.9709    2.9585   -1.7923 C   0  0  0  0  0  0  0  0  0  0  0  0
    9.6889    1.6306   -1.4802 C   0  0  0  0  0  0  0  0  0  0  0  0
    8.4334    1.2765   -0.9540 C   0  0  0  0  0  0  0  0  0  0  0  0
    8.1148   -0.0456   -0.6289 C   0  0  0  0  0  0  0  0  0  0  0  0
    6.8540   -0.3554   -0.1064 C   0  0  0  0  0  0  0  0  0  0  0  0
    6.4929   -1.6688    0.2361 C   0  0  0  0  0  0  0  0  0  0  0  0
    5.2471   -1.9753    0.7578 C   0  0  0  0  0  0  0  0  0  0  0  0
    4.9949   -3.2549    1.0565 N   0  0  0  0  0  0  0  0  0  0  0  0
    3.8046   -3.5972    1.5663 C   0  0  0  0  0  0  0  0  0  0  0  0
    3.5841   -4.9369    1.8589 C   0  0  0  0  0  0  0  0  0  0  0  0
    2.3743   -5.3897    2.3878 C   0  0  0  0  0  0  0  0  0  0  0  0
    1.3547   -4.4841    2.6344 C   0  0  0  0  0  0  0  0  0  0  0  0
    1.5554   -3.1344    2.3511 C   0  0  0  0  0  0  0  0  0  0  0  0
    2.7816   -2.6647    1.8113 C   0  0  0  0  0  0  0  0  0  0  0  0
    1.9832    0.4657    2.9550 C   0  0  0  0  0  0  0  0  0  0  0  0
    2.9421    0.3057    3.9867 C   0  0  0  0  0  0  0  0  0  0  0  0
    2.8902    1.0489    5.1682 C   0  0  0  0  0  0  0  0  0  0  0  0
    1.8730    1.9723    5.3575 C   0  0  0  0  0  0  0  0  0  0  0  0
    0.9080    2.1450    4.3677 C   0  0  0  0  0  0  0  0  0  0  0  0
    0.9508    1.4034    3.1738 C   0  0  0  0  0  0  0  0  0  0  0  0
   -0.0394    1.5850    2.2010 C   0  0  0  0  0  0  0  0  0  0  0  0
   -0.0359    0.8702    0.9959 C   0  0  0  0  0  0  0  0  0  0  0  0
   -1.0712    1.0556    0.0617 C   0  0  0  0  0  0  0  0  0  0  0  0
   -1.1337    0.3599   -1.1702 C   0  0  0  0  0  0  0  0  0  0  0  0
   -3.8093    6.4531   -3.1197 H   0  0  0  0  0  0  0  0  0  0  0  0
   -1.7910    5.1868   -3.8304 H   0  0  0  0  0  0  0  0  0  0  0  0
   -1.5551    2.8227   -3.2250 H   0  0  0  0  0  0  0  0  0  0  0  0
   -5.5669    5.3212   -1.8037 H   0  0  0  0  0  0  0  0  0  0  0  0
   -7.3945    1.7562    0.3391 H   0  0  0  0  0  0  0  0  0  0  0  0
   -8.4776   -0.1296    1.5669 H   0  0  0  0  0  0  0  0  0  0  0  0
   -9.4996   -2.0631    2.7761 H   0  0  0  0  0  0  0  0  0  0  0  0
   -9.3840   -4.4333    3.4611 H   0  0  0  0  0  0  0  0  0  0  0  0
   -7.4424   -5.8242    2.7744 H   0  0  0  0  0  0  0  0  0  0  0  0
   -5.6326   -4.8321    1.4112 H   0  0  0  0  0  0  0  0  0  0  0  0
   -3.6911   -1.2745   -0.8188 H   0  0  0  0  0  0  0  0  0  0  0  0
   -4.0748    0.4748   -4.1744 H   0  0  0  0  0  0  0  0  0  0  0  0
   -3.9299   -0.7876   -6.2581 H   0  0  0  0  0  0  0  0  0  0  0  0
   -1.9797   -2.2547   -6.7043 H   0  0  0  0  0  0  0  0  0  0  0  0
   -0.1809   -2.4491   -5.0372 H   0  0  0  0  0  0  0  0  0  0  0  0
    0.7754   -1.8776   -2.8932 H   0  0  0  0  0  0  0  0  0  0  0  0
    1.7506   -1.4080   -0.7772 H   0  0  0  0  0  0  0  0  0  0  0  0
    3.9952    1.2031    0.7274 H   0  0  0  0  0  0  0  0  0  0  0  0
    7.0052    4.3426   -0.8905 H   0  0  0  0  0  0  0  0  0  0  0  0
    9.2107    4.9730   -1.8182 H   0  0  0  0  0  0  0  0  0  0  0  0
   10.9415    3.2310   -2.1988 H   0  0  0  0  0  0  0  0  0  0  0  0
   10.4510    0.8731   -1.6481 H   0  0  0  0  0  0  0  0  0  0  0  0
    8.8482   -0.8339   -0.7811 H   0  0  0  0  0  0  0  0  0  0  0  0
    7.2033   -2.4812    0.0955 H   0  0  0  0  0  0  0  0  0  0  0  0
    4.3811   -5.6523    1.6673 H   0  0  0  0  0  0  0  0  0  0  0  0
    2.2356   -6.4456    2.6028 H   0  0  0  0  0  0  0  0  0  0  0  0
    0.4053   -4.8196    3.0439 H   0  0  0  0  0  0  0  0  0  0  0  0
    0.7363   -2.4459    2.5532 H   0  0  0  0  0  0  0  0  0  0  0  0
    3.7559   -0.4087    3.8804 H   0  0  0  0  0  0  0  0  0  0  0  0
    3.6472    0.9036    5.9346 H   0  0  0  0  0  0  0  0  0  0  0  0
    1.8280    2.5559    6.2731 H   0  0  0  0  0  0  0  0  0  0  0  0
    0.1141    2.8700    4.5363 H   0  0  0  0  0  0  0  0  0  0  0  0
   -0.8402    2.2996    2.3898 H   0  0  0  0  0  0  0  0  0  0  0  0
   -1.8608    1.7627    0.3132 H   0  0  0  0  0  0  0  0  0  0  0  0
  1  2  4  0
  2  3  4  0
  3  4  4  0
  4  5  4  0
  5  6  4  0
  5  7  4  0
  7  8  4  0
  8  9  4  0
  9 10  4  0
 10 11  4  0
 11 12  4  0
 12 13  4  0
 13 14  4  0
 14 15  4  0
 15 16  4  0
 16 17  4  0
 17 18  4  0
 18 19  4  0
 19 20  4  0
 20 21  4  0
 21 22  4  0
 22 23  1  0
 23 24  4  0
 24 25  4  0
 25 26  4  0
 26 27  4  0
 27 28  4  0
 28 29  4  0
 29 30  4  0
 30 31  4  0
 31 32  4  0
 32 33  4  0
 33 34  4  0
 34 35  1  0
 35 36  4  0
 36 37  4  0
 37 38  4  0
 38 39  4  0
 39 40  4  0
 40 41  4  0
 41 42  4  0
 42 43  4  0
 43 44  4  0
 44 45  4  0
 45 46  4  0
 46 47  4  0
 47 48  4  0
 48 49  4  0
 49 50  4  0
 50 51  4  0
 51 52  4  0
 52 53  4  0
 53 54  4  0
 54 55  4  0
 55 56  4  0
 34 57  4  0
 57 58  4  0
 58 59  4  0
 59 60  4  0
 60 61  4  0
 61 62  4  0
 62 63  4  0
 63 64  4  0
 64 65  4  0
 65 66  4  0
  6  1  4  0
 21  8  4  0
 66 23  4  0
 22  4  4  0
 29 24  4  0
 66 31  4  0
 19 10  4  0
 64 33  4  0
 17 12  4  0
 56 35  4  0
 62 57  4  0
 49 36  4  0
 56 51  4  0
 47 38  4  0
 45 40  4  0
  1 67  1  0
  2 68  1  0
  3 69  1  0
  6 70  1  0
  9 71  1  0
 11 72  1  0
 13 73  1  0
 14 74  1  0
 15 75  1  0
 16 76  1  0
 20 77  1  0
 25 78  1  0
 26 79  1  0
 27 80  1  0
 28 81  1  0
 30 82  1  0
 32 83  1  0
 37 84  1  0
 41 85  1  0
 42 86  1  0
 43 87  1  0
 44 88  1  0
 46 89  1  0
 48 90  1  0
 52 91  1  0
 53 92  1  0
 54 93  1  0
 55 94  1  0
 58 95  1  0
 59 96  1  0
 60 97  1  0
 61 98  1  0
 63 99  1  0
 65100  1  0
M  END
