
     RDKit          3D

100114  0  0  0  0  0  0  0  0999 V2000
  -14.4165   -2.7018    0.8047 C   0  0  0  0  0  0  0  0  0  0  0  0
  -13.1420   -2.5032    1.3308 C   0  0  0  0  0  0  0  0  0  0  0  0
  -12.1847   -1.7643    0.6127 C   0  0  0  0  0  0  0  0  0  0  0  0
  -10.8958   -1.5454    1.1106 C   0  0  0  0  0  0  0  0  0  0  0  0
   -9.9715   -0.8046    0.3658 C   0  0  0  0  0  0  0  0  0  0  0  0
   -8.6650   -0.5612    0.8298 C   0  0  0  0  0  0  0  0  0  0  0  0
   -7.7526    0.1730    0.0896 C   0  0  0  0  0  0  0  0  0  0  0  0
   -6.5183    0.3765    0.5791 N   0  0  0  0  0  0  0  0  0  0  0  0
   -5.6349    1.0885   -0.1414 C   0  0  0  0  0  0  0  0  0  0  0  0
   -4.3596    1.2975    0.3637 C   0  0  0  0  0  0  0  0  0  0  0  0
   -3.3822    2.0196   -0.3430 C   0  0  0  0  0  0  0  0  0  0  0  0
   -2.0287    2.2029    0.2247 C   0  0  0  0  0  0  0  0  0  0  0  0
   -1.7103    3.4046    0.9356 C   0  0  0  0  0  0  0  0  0  0  0  0
   -2.6257    4.4670    1.1471 C   0  0  0  0  0  0  0  0  0  0  0  0
   -2.2705    5.6245    1.8440 C   0  0  0  0  0  0  0  0  0  0  0  0
   -0.9875    5.7553    2.3538 C   0  0  0  0  0  0  0  0  0  0  0  0
   -0.0660    4.7274    2.1690 C   0  0  0  0  0  0  0  0  0  0  0  0
   -0.4122    3.5573    1.4705 C   0  0  0  0  0  0  0  0  0  0  0  0
    0.5312    2.5361    1.3076 C   0  0  0  0  0  0  0  0  0  0  0  0
    0.2315    1.3516    0.6224 C   0  0  0  0  0  0  0  0  0  0  0  0
    1.2074    0.3450    0.4920 C   0  0  0  0  0  0  0  0  0  0  0  0
    0.9740   -0.8762   -0.1860 C   0  0  0  0  0  0  0  0  0  0  0  0
    1.9479   -1.9189   -0.3230 C   0  0  0  0  0  0  0  0  0  0  0  0
    3.2872   -1.7562    0.2831 C   0  0  0  0  0  0  0  0  0  0  0  0
    3.5334   -2.1874    1.5915 C   0  0  0  0  0  0  0  0  0  0  0  0
    4.7977   -2.0296    2.1562 C   0  0  0  0  0  0  0  0  0  0  0  0
    5.8330   -1.4355    1.4163 C   0  0  0  0  0  0  0  0  0  0  0  0
    7.1142   -1.2618    1.9505 C   0  0  0  0  0  0  0  0  0  0  0  0
    8.1207   -0.6652    1.1829 C   0  0  0  0  0  0  0  0  0  0  0  0
    9.4230   -0.4713    1.6813 C   0  0  0  0  0  0  0  0  0  0  0  0
   10.4164    0.1211    0.9183 C   0  0  0  0  0  0  0  0  0  0  0  0
   11.6424    0.2836    1.4429 N   0  0  0  0  0  0  0  0  0  0  0  0
   12.6036    0.8599    0.6990 C   0  0  0  0  0  0  0  0  0  0  0  0
   13.8725    1.0314    1.2365 C   0  0  0  0  0  0  0  0  0  0  0  0
   14.9076    1.6239    0.5068 C   0  0  0  0  0  0  0  0  0  0  0  0
   14.6768    2.0586   -0.7931 C   0  0  0  0  0  0  0  0  0  0  0  0
   13.4132    1.8992   -1.3572 C   0  0  0  0  0  0  0  0  0  0  0  0
   12.3760    1.3024   -0.6180 C   0  0  0  0  0  0  0  0  0  0  0  0
   11.0952    1.1268   -1.1525 C   0  0  0  0  0  0  0  0  0  0  0  0
   10.0897    0.5291   -0.3847 C   0  0  0  0  0  0  0  0  0  0  0  0
    8.7878    0.3345   -0.8833 C   0  0  0  0  0  0  0  0  0  0  0  0
    7.7941   -0.2571   -0.1198 C   0  0  0  0  0  0  0  0  0  0  0  0
    6.5669   -0.4182   -0.6428 N   0  0  0  0  0  0  0  0  0  0  0  0
    5.6047   -0.9933    0.1000 C   0  0  0  0  0  0  0  0  0  0  0  0
    4.3365   -1.1626   -0.4400 C   0  0  0  0  0  0  0  0  0  0  0  0
    1.6284   -3.1218   -1.0319 C   0  0  0  0  0  0  0  0  0  0  0  0
    2.5347   -4.1968   -1.2179 C   0  0  0  0  0  0  0  0  0  0  0  0
    2.1792   -5.3543   -1.9148 C   0  0  0  0  0  0  0  0  0  0  0  0
    0.9048   -5.4736   -2.4483 C   0  0  0  0  0  0  0  0  0  0  0  0
   -0.0096   -4.4355   -2.2843 C   0  0  0  0  0  0  0  0  0  0  0  0
    0.3370   -3.2652   -1.5858 C   0  0  0  0  0  0  0  0  0  0  0  0
   -0.6012   -2.2371   -1.4363 C   0  0  0  0  0  0  0  0  0  0  0  0
   -0.3010   -1.0537   -0.7494 C   0  0  0  0  0  0  0  0  0  0  0  0
   -1.2760   -0.0464   -0.6205 C   0  0  0  0  0  0  0  0  0  0  0  0
   -1.0466    1.1702    0.0674 C   0  0  0  0  0  0  0  0  0  0  0  0
   -3.7140    2.5504   -1.5947 C   0  0  0  0  0  0  0  0  0  0  0  0
   -4.9914    2.3619   -2.1201 C   0  0  0  0  0  0  0  0  0  0  0  0
   -5.9511    1.6317   -1.4002 C   0  0  0  0  0  0  0  0  0  0  0  0
   -7.2402    1.4152   -1.8985 C   0  0  0  0  0  0  0  0  0  0  0  0
   -8.1662    0.6762   -1.1538 C   0  0  0  0  0  0  0  0  0  0  0  0
   -9.4729    0.4329   -1.6177 C   0  0  0  0  0  0  0  0  0  0  0  0
  -10.3860   -0.3011   -0.8775 C   0  0  0  0  0  0  0  0  0  0  0  0
  -11.6208   -0.5044   -1.3667 N   0  0  0  0  0  0  0  0  0  0  0  0
  -12.5036   -1.2176   -0.6447 C   0  0  0  0  0  0  0  0  0  0  0  0
  -13.7812   -1.4309   -1.1455 C   0  0  0  0  0  0  0  0  0  0  0  0
  -14.7374   -2.1647   -0.4365 C   0  0  0  0  0  0  0  0  0  0  0  0
  -15.1550   -3.2732    1.3611 H   0  0  0  0  0  0  0  0  0  0  0  0
  -12.8979   -2.9264    2.3024 H   0  0  0  0  0  0  0  0  0  0  0  0
  -10.6123   -1.9519    2.0788 H   0  0  0  0  0  0  0  0  0  0  0  0
   -8.3459   -0.9523    1.7936 H   0  0  0  0  0  0  0  0  0  0  0  0
   -4.1148    0.8773    1.3381 H   0  0  0  0  0  0  0  0  0  0  0  0
   -3.6439    4.4022    0.7685 H   0  0  0  0  0  0  0  0  0  0  0  0
   -2.9996    6.4178    1.9865 H   0  0  0  0  0  0  0  0  0  0  0  0
   -0.7026    6.6521    2.8971 H   0  0  0  0  0  0  0  0  0  0  0  0
    0.9348    4.8468    2.5796 H   0  0  0  0  0  0  0  0  0  0  0  0
    1.5276    2.6654    1.7290 H   0  0  0  0  0  0  0  0  0  0  0  0
    2.1842    0.5235    0.9393 H   0  0  0  0  0  0  0  0  0  0  0  0
    2.7376   -2.6488    2.1736 H   0  0  0  0  0  0  0  0  0  0  0  0
    4.9689   -2.3726    3.1740 H   0  0  0  0  0  0  0  0  0  0  0  0
    7.3293   -1.5913    2.9646 H   0  0  0  0  0  0  0  0  0  0  0  0
    9.6747   -0.7888    2.6912 H   0  0  0  0  0  0  0  0  0  0  0  0
   14.0611    0.6942    2.2531 H   0  0  0  0  0  0  0  0  0  0  0  0
   15.8892    1.7428    0.9581 H   0  0  0  0  0  0  0  0  0  0  0  0
   15.4769    2.5200   -1.3660 H   0  0  0  0  0  0  0  0  0  0  0  0
   13.2404    2.2419   -2.3748 H   0  0  0  0  0  0  0  0  0  0  0  0
   10.8812    1.4559   -2.1668 H   0  0  0  0  0  0  0  0  0  0  0  0
    8.5370    0.6512   -1.8936 H   0  0  0  0  0  0  0  0  0  0  0  0
    4.1576   -0.8197   -1.4578 H   0  0  0  0  0  0  0  0  0  0  0  0
    3.5453   -4.1424   -0.8178 H   0  0  0  0  0  0  0  0  0  0  0  0
    2.9019   -6.1567   -2.0385 H   0  0  0  0  0  0  0  0  0  0  0  0
    0.6204   -6.3701   -2.9923 H   0  0  0  0  0  0  0  0  0  0  0  0
   -1.0054   -4.5468   -2.7096 H   0  0  0  0  0  0  0  0  0  0  0  0
   -1.5951   -2.3618   -1.8656 H   0  0  0  0  0  0  0  0  0  0  0  0
   -2.2506   -0.2229   -1.0733 H   0  0  0  0  0  0  0  0  0  0  0  0
   -2.9765    3.1137   -2.1634 H   0  0  0  0  0  0  0  0  0  0  0  0
   -5.2313    2.7838   -3.0935 H   0  0  0  0  0  0  0  0  0  0  0  0
   -7.5230    1.8204   -2.8675 H   0  0  0  0  0  0  0  0  0  0  0  0
   -9.7918    0.8239   -2.5816 H   0  0  0  0  0  0  0  0  0  0  0  0
  -14.0397   -1.0138   -2.1159 H   0  0  0  0  0  0  0  0  0  0  0  0
  -15.7282   -2.3126   -0.8581 H   0  0  0  0  0  0  0  0  0  0  0  0
  1  2  4  0
  2  3  4  0
  3  4  4  0
  4  5  4  0
  5  6  4  0
  6  7  4  0
  7  8  4  0
  8  9  4  0
  9 10  4  0
 10 11  4  0
 11 12  1  0
 12 13  4  0
 13 14  4  0
 14 15  4  0
 15 16  4  0
 16 17  4  0
 17 18  4  0
 18 19  4  0
 19 20  4  0
 20 21  4  0
 21 22  4  0
 22 23  4  0
 23 24  1  0
 24 25  4  0
 25 26  4  0
 26 27  4  0
 27 28  4  0
 28 29  4  0
 29 30  4  0
 30 31  4  0
 31 32  4  0
 32 33  4  0
 33 34  4  0
 34 35  4  0
 35 36  4  0
 36 37  4  0
 37 38  4  0
 38 39  4  0
 39 40  4  0
 40 41  4  0
 41 42  4  0
 42 43  4  0
 43 44  4  0
 44 45  4  0
 23 46  4  0
 46 47  4  0
 47 48  4  0
 48 49  4  0
 49 50  4  0
 50 51  4  0
 51 52  4  0
 52 53  4  0
 53 54  4  0
 54 55  4  0
 11 56  4  0
 56 57  4  0
 57 58  4  0
 58 59  4  0
 59 60  4  0
 60 61  4  0
 61 62  4  0
 62 63  4  0
 63 64  4  0
 64 65  4  0
 65 66  4  0
 66  1  4  0
 64  3  4  0
 62  5  4  0
 60  7  4  0
 58  9  4  0
 55 12  4  0
 18 13  4  0
 55 20  4  0
 53 22  4  0
 45 24  4  0
 51 46  4  0
 44 27  4  0
 42 29  4  0
 40 31  4  0
 38 33  4  0
  1 67  1  0
  2 68  1  0
  4 69  1  0
  6 70  1  0
 10 71  1  0
 14 72  1  0
 15 73  1  0
 16 74  1  0
 17 75  1  0
 19 76  1  0
 21 77  1  0
 25 78  1  0
 26 79  1  0
 28 80  1  0
 30 81  1  0
 34 82  1  0
 35 83  1  0
 36 84  1  0
 37 85  1  0
 39 86  1  0
 41 87  1  0
 45 88  1  0
 47 89  1  0
 48 90  1  0
 49 91  1  0
 50 92  1  0
 52 93  1  0
 54 94  1  0
 56 95  1  0
 57 96  1  0
 59 97  1  0
 61 98  1  0
 65 99  1  0
 66100  1  0
M  END
