
     RDKit          3D

100114  0  0  0  0  0  0  0  0999 V2000
   -6.5264    4.1927    1.4542 C   0  0  0  0  0  0  0  0  0  0  0  0
   -7.5564    3.5122    2.0929 C   0  0  0  0  0  0  0  0  0  0  0  0
   -7.5888    2.1147    2.0647 C   0  0  0  0  0  0  0  0  0  0  0  0
   -6.6127    1.3740    1.4106 C   0  0  0  0  0  0  0  0  0  0  0  0
   -6.6849    0.0325    1.4104 N   0  0  0  0  0  0  0  0  0  0  0  0
   -5.7400   -0.6807    0.7763 C   0  0  0  0  0  0  0  0  0  0  0  0
   -5.8484   -2.0578    0.7986 C   0  0  0  0  0  0  0  0  0  0  0  0
   -4.9114   -2.8923    0.1717 C   0  0  0  0  0  0  0  0  0  0  0  0
   -5.0465   -4.2860    0.2180 C   0  0  0  0  0  0  0  0  0  0  0  0
   -4.1017   -5.1088   -0.4012 C   0  0  0  0  0  0  0  0  0  0  0  0
   -4.1964   -6.5126   -0.3734 C   0  0  0  0  0  0  0  0  0  0  0  0
   -3.2287   -7.2943   -1.0010 C   0  0  0  0  0  0  0  0  0  0  0  0
   -2.1675   -6.6785   -1.6548 C   0  0  0  0  0  0  0  0  0  0  0  0
   -2.0812   -5.2835   -1.6784 C   0  0  0  0  0  0  0  0  0  0  0  0
   -3.0338   -4.4829   -1.0622 C   0  0  0  0  0  0  0  0  0  0  0  0
   -2.9077   -3.1472   -1.1134 N   0  0  0  0  0  0  0  0  0  0  0  0
   -3.8155   -2.3455   -0.5142 C   0  0  0  0  0  0  0  0  0  0  0  0
   -3.6927   -0.9414   -0.5525 C   0  0  0  0  0  0  0  0  0  0  0  0
   -2.5395   -0.3378   -1.2852 C   0  0  0  0  0  0  0  0  0  0  0  0
   -2.6888    0.0353   -2.6612 C   0  0  0  0  0  0  0  0  0  0  0  0
   -3.8830   -0.1380   -3.4061 C   0  0  0  0  0  0  0  0  0  0  0  0
   -3.9863    0.2525   -4.7433 C   0  0  0  0  0  0  0  0  0  0  0  0
   -2.8957    0.8248   -5.3804 C   0  0  0  0  0  0  0  0  0  0  0  0
   -1.7059    1.0036   -4.6791 C   0  0  0  0  0  0  0  0  0  0  0  0
   -1.5912    0.6168   -3.3324 C   0  0  0  0  0  0  0  0  0  0  0  0
   -0.3828    0.8077   -2.6529 C   0  0  0  0  0  0  0  0  0  0  0  0
   -0.2202    0.4416   -1.3111 C   0  0  0  0  0  0  0  0  0  0  0  0
    1.0176    0.6437   -0.6727 C   0  0  0  0  0  0  0  0  0  0  0  0
    1.2555    0.2963    0.6785 C   0  0  0  0  0  0  0  0  0  0  0  0
    2.5168    0.4620    1.3405 C   0  0  0  0  0  0  0  0  0  0  0  0
    3.6944    0.9690    0.5734 C   0  0  0  0  0  0  0  0  0  0  0  0
    3.9808    2.3480    0.5841 C   0  0  0  0  0  0  0  0  0  0  0  0
    3.2115    3.2192    1.2727 N   0  0  0  0  0  0  0  0  0  0  0  0
    3.4968    4.5310    1.2715 C   0  0  0  0  0  0  0  0  0  0  0  0
    2.6884    5.4055    1.9846 C   0  0  0  0  0  0  0  0  0  0  0  0
    2.9411    6.7799    2.0148 C   0  0  0  0  0  0  0  0  0  0  0  0
    4.0262    7.2987    1.3177 C   0  0  0  0  0  0  0  0  0  0  0  0
    4.8524    6.4410    0.5946 C   0  0  0  0  0  0  0  0  0  0  0  0
    4.5912    5.0590    0.5693 C   0  0  0  0  0  0  0  0  0  0  0  0
    5.3926    4.1634   -0.1435 C   0  0  0  0  0  0  0  0  0  0  0  0
    5.0946    2.7949   -0.1454 C   0  0  0  0  0  0  0  0  0  0  0  0
    5.8894    1.8884   -0.8626 C   0  0  0  0  0  0  0  0  0  0  0  0
    5.6181    0.5341   -0.8913 C   0  0  0  0  0  0  0  0  0  0  0  0
    6.4293   -0.2537   -1.6167 N   0  0  0  0  0  0  0  0  0  0  0  0
    6.1882   -1.5742   -1.6765 C   0  0  0  0  0  0  0  0  0  0  0  0
    7.0171   -2.3930   -2.4334 C   0  0  0  0  0  0  0  0  0  0  0  0
    6.8005   -3.7712   -2.5291 C   0  0  0  0  0  0  0  0  0  0  0  0
    5.7337   -4.3525   -1.8535 C   0  0  0  0  0  0  0  0  0  0  0  0
    4.8894   -3.5535   -1.0868 C   0  0  0  0  0  0  0  0  0  0  0  0
    5.1135   -2.1683   -0.9970 C   0  0  0  0  0  0  0  0  0  0  0  0
    4.2841   -1.3344   -0.2403 C   0  0  0  0  0  0  0  0  0  0  0  0
    4.5128    0.0558   -0.1692 C   0  0  0  0  0  0  0  0  0  0  0  0
    2.6669    0.0987    2.7184 C   0  0  0  0  0  0  0  0  0  0  0  0
    3.8743    0.2379    3.4482 C   0  0  0  0  0  0  0  0  0  0  0  0
    3.9775   -0.1376    4.7897 C   0  0  0  0  0  0  0  0  0  0  0  0
    2.8753   -0.6652    5.4450 C   0  0  0  0  0  0  0  0  0  0  0  0
    1.6736   -0.8157    4.7565 C   0  0  0  0  0  0  0  0  0  0  0  0
    1.5577   -0.4413    3.4058 C   0  0  0  0  0  0  0  0  0  0  0  0
    0.3406   -0.6120    2.7352 C   0  0  0  0  0  0  0  0  0  0  0  0
    0.1770   -0.2552    1.3904 C   0  0  0  0  0  0  0  0  0  0  0  0
   -1.0609   -0.4586    0.7510 C   0  0  0  0  0  0  0  0  0  0  0  0
   -1.2936   -0.1286   -0.6061 C   0  0  0  0  0  0  0  0  0  0  0  0
   -4.6552   -0.1023    0.0979 C   0  0  0  0  0  0  0  0  0  0  0  0
   -4.5991    1.3075    0.1121 C   0  0  0  0  0  0  0  0  0  0  0  0
   -5.5754    2.0665    0.7674 C   0  0  0  0  0  0  0  0  0  0  0  0
   -5.5354    3.4724    0.7912 C   0  0  0  0  0  0  0  0  0  0  0  0
   -6.4938    5.2790    1.4717 H   0  0  0  0  0  0  0  0  0  0  0  0
   -8.3358    4.0617    2.6139 H   0  0  0  0  0  0  0  0  0  0  0  0
   -8.3970    1.5879    2.5663 H   0  0  0  0  0  0  0  0  0  0  0  0
   -6.6950   -2.4925    1.3279 H   0  0  0  0  0  0  0  0  0  0  0  0
   -5.8890   -4.7329    0.7411 H   0  0  0  0  0  0  0  0  0  0  0  0
   -5.0230   -7.0008    0.1373 H   0  0  0  0  0  0  0  0  0  0  0  0
   -3.3023   -8.3784   -0.9790 H   0  0  0  0  0  0  0  0  0  0  0  0
   -1.4051   -7.2763   -2.1476 H   0  0  0  0  0  0  0  0  0  0  0  0
   -1.2479   -4.8049   -2.1888 H   0  0  0  0  0  0  0  0  0  0  0  0
   -4.7592   -0.5906   -2.9473 H   0  0  0  0  0  0  0  0  0  0  0  0
   -4.9184    0.1028   -5.2819 H   0  0  0  0  0  0  0  0  0  0  0  0
   -2.9669    1.1277   -6.4212 H   0  0  0  0  0  0  0  0  0  0  0  0
   -0.8586    1.4503   -5.1955 H   0  0  0  0  0  0  0  0  0  0  0  0
    0.4577    1.2519   -3.1847 H   0  0  0  0  0  0  0  0  0  0  0  0
    1.8226    1.0898   -1.2546 H   0  0  0  0  0  0  0  0  0  0  0  0
    1.8378    5.0034    2.5307 H   0  0  0  0  0  0  0  0  0  0  0  0
    2.2883    7.4375    2.5826 H   0  0  0  0  0  0  0  0  0  0  0  0
    4.2280    8.3665    1.3366 H   0  0  0  0  0  0  0  0  0  0  0  0
    5.6992    6.8538    0.0514 H   0  0  0  0  0  0  0  0  0  0  0  0
    6.2500    4.5341   -0.7010 H   0  0  0  0  0  0  0  0  0  0  0  0
    6.7501    2.2466   -1.4253 H   0  0  0  0  0  0  0  0  0  0  0  0
    7.8529   -1.9448   -2.9652 H   0  0  0  0  0  0  0  0  0  0  0  0
    7.4649   -4.3839   -3.1320 H   0  0  0  0  0  0  0  0  0  0  0  0
    5.5567   -5.4224   -1.9230 H   0  0  0  0  0  0  0  0  0  0  0  0
    4.0542   -4.0122   -0.5617 H   0  0  0  0  0  0  0  0  0  0  0  0
    3.4461   -1.7787    0.2939 H   0  0  0  0  0  0  0  0  0  0  0  0
    4.7609    0.6546    2.9753 H   0  0  0  0  0  0  0  0  0  0  0  0
    4.9199   -0.0127    5.3160 H   0  0  0  0  0  0  0  0  0  0  0  0
    2.9477   -0.9589    6.4884 H   0  0  0  0  0  0  0  0  0  0  0  0
    0.8202   -1.2338    5.2862 H   0  0  0  0  0  0  0  0  0  0  0  0
   -0.5044   -1.0374    3.2754 H   0  0  0  0  0  0  0  0  0  0  0  0
   -1.8673   -0.8995    1.3344 H   0  0  0  0  0  0  0  0  0  0  0  0
   -3.7871    1.8261   -0.3939 H   0  0  0  0  0  0  0  0  0  0  0  0
   -4.7318    4.0101    0.2927 H   0  0  0  0  0  0  0  0  0  0  0  0
  1  2  4  0
  2  3  4  0
  3  4  4  0
  4  5  4  0
  5  6  4  0
  6  7  4  0
  7  8  4  0
  8  9  4  0
  9 10  4  0
 10 11  4  0
 11 12  4  0
 12 13  4  0
 13 14  4  0
 14 15  4  0
 15 16  4  0
 16 17  4  0
 17 18  4  0
 18 19  1  0
 19 20  4  0
 20 21  4  0
 21 22  4  0
 22 23  4  0
 23 24  4  0
 24 25  4  0
 25 26  4  0
 26 27  4  0
 27 28  4  0
 28 29  4  0
 29 30  4  0
 30 31  1  0
 31 32  4  0
 32 33  4  0
 33 34  4  0
 34 35  4  0
 35 36  4  0
 36 37  4  0
 37 38  4  0
 38 39  4  0
 39 40  4  0
 40 41  4  0
 41 42  4  0
 42 43  4  0
 43 44  4  0
 44 45  4  0
 45 46  4  0
 46 47  4  0
 47 48  4  0
 48 49  4  0
 49 50  4  0
 50 51  4  0
 51 52  4  0
 30 53  4  0
 53 54  4  0
 54 55  4  0
 55 56  4  0
 56 57  4  0
 57 58  4  0
 58 59  4  0
 59 60  4  0
 60 61  4  0
 61 62  4  0
 18 63  4  0
 63 64  4  0
 64 65  4  0
 65 66  4  0
 66  1  4  0
 65  4  4  0
 63  6  4  0
 17  8  4  0
 62 19  4  0
 15 10  4  0
 25 20  4  0
 62 27  4  0
 60 29  4  0
 52 31  4  0
 58 53  4  0
 41 32  4  0
 52 43  4  0
 39 34  4  0
 50 45  4  0
  1 67  1  0
  2 68  1  0
  3 69  1  0
  7 70  1  0
  9 71  1  0
 11 72  1  0
 12 73  1  0
 13 74  1  0
 14 75  1  0
 21 76  1  0
 22 77  1  0
 23 78  1  0
 24 79  1  0
 26 80  1  0
 28 81  1  0
 35 82  1  0
 36 83  1  0
 37 84  1  0
 38 85  1  0
 40 86  1  0
 42 87  1  0
 46 88  1  0
 47 89  1  0
 48 90  1  0
 49 91  1  0
 51 92  1  0
 54 93  1  0
 55 94  1  0
 56 95  1  0
 57 96  1  0
 59 97  1  0
 61 98  1  0
 64 99  1  0
 66100  1  0
M  END
