
     RDKit          3D

 96110  0  0  0  0  0  0  0  0999 V2000
   -8.4816    2.2905   -1.6271 C   0  0  0  0  0  0  0  0  0  0  0  0
   -7.5082    3.1838   -1.2300 C   0  0  0  0  0  0  0  0  0  0  0  0
   -6.3362    2.7213   -0.6314 C   0  0  0  0  0  0  0  0  0  0  0  0
   -6.1089    1.3188   -0.4121 C   0  0  0  0  0  0  0  0  0  0  0  0
   -7.1041    0.3989   -0.8215 C   0  0  0  0  0  0  0  0  0  0  0  0
   -8.2787    0.9291   -1.4255 C   0  0  0  0  0  0  0  0  0  0  0  0
   -6.8986   -0.9986   -0.6198 C   0  0  0  0  0  0  0  0  0  0  0  0
   -7.8632   -1.9642   -1.0176 C   0  0  0  0  0  0  0  0  0  0  0  0
   -7.6905   -3.3303   -0.8344 C   0  0  0  0  0  0  0  0  0  0  0  0
   -6.5342   -3.7861   -0.2391 C   0  0  0  0  0  0  0  0  0  0  0  0
   -5.5525   -2.8840    0.1723 C   0  0  0  0  0  0  0  0  0  0  0  0
   -5.7012   -1.4663   -0.0039 C   0  0  0  0  0  0  0  0  0  0  0  0
   -4.6756   -0.5636    0.4302 C   0  0  0  0  0  0  0  0  0  0  0  0
   -3.5142   -1.1847    1.0531 C   0  0  0  0  0  0  0  0  0  0  0  0
   -2.3349   -0.4635    1.6040 C   0  0  0  0  0  0  0  0  0  0  0  0
   -2.3290   -0.0602    2.9803 C   0  0  0  0  0  0  0  0  0  0  0  0
   -3.4235   -0.2432    3.8622 C   0  0  0  0  0  0  0  0  0  0  0  0
   -3.3765    0.1688    5.1956 C   0  0  0  0  0  0  0  0  0  0  0  0
   -2.2322    0.7773    5.6890 C   0  0  0  0  0  0  0  0  0  0  0  0
   -1.1393    0.9735    4.8475 C   0  0  0  0  0  0  0  0  0  0  0  0
   -1.1753    0.5641    3.5031 C   0  0  0  0  0  0  0  0  0  0  0  0
   -0.0642    0.7739    2.6770 C   0  0  0  0  0  0  0  0  0  0  0  0
   -0.0531    0.3830    1.3314 C   0  0  0  0  0  0  0  0  0  0  0  0
    1.0865    0.6144    0.5383 C   0  0  0  0  0  0  0  0  0  0  0  0
    1.1636    0.2472   -0.8265 C   0  0  0  0  0  0  0  0  0  0  0  0
    2.3154    0.4679   -1.6550 C   0  0  0  0  0  0  0  0  0  0  0  0
    3.4957    1.1881   -1.1046 C   0  0  0  0  0  0  0  0  0  0  0  0
    4.6690    0.5646   -0.5073 C   0  0  0  0  0  0  0  0  0  0  0  0
    4.9061   -0.8674   -0.2998 C   0  0  0  0  0  0  0  0  0  0  0  0
    3.9860   -1.8994   -0.6322 C   0  0  0  0  0  0  0  0  0  0  0  0
    4.2231   -3.2611   -0.4409 C   0  0  0  0  0  0  0  0  0  0  0  0
    5.4159   -3.6728    0.1086 C   0  0  0  0  0  0  0  0  0  0  0  0
    6.3682   -2.7269    0.4703 C   0  0  0  0  0  0  0  0  0  0  0  0
    6.1291   -1.3225    0.2768 C   0  0  0  0  0  0  0  0  0  0  0  0
    7.1316   -0.4040    0.6711 C   0  0  0  0  0  0  0  0  0  0  0  0
    8.3258   -0.9372    1.2322 C   0  0  0  0  0  0  0  0  0  0  0  0
    8.5407   -2.3004    1.4075 C   0  0  0  0  0  0  0  0  0  0  0  0
    7.5598   -3.1925    1.0268 C   0  0  0  0  0  0  0  0  0  0  0  0
    6.9136    0.9954    0.4973 C   0  0  0  0  0  0  0  0  0  0  0  0
    7.8816    1.9599    0.8888 C   0  0  0  0  0  0  0  0  0  0  0  0
    7.6977    3.3276    0.7303 C   0  0  0  0  0  0  0  0  0  0  0  0
    6.5268    3.7864    0.1666 C   0  0  0  0  0  0  0  0  0  0  0  0
    5.5415    2.8853   -0.2378 C   0  0  0  0  0  0  0  0  0  0  0  0
    5.7002    1.4660   -0.0841 C   0  0  0  0  0  0  0  0  0  0  0  0
    4.3979    3.4254   -0.8004 C   0  0  0  0  0  0  0  0  0  0  0  0
    3.3921    2.5899   -1.2308 C   0  0  0  0  0  0  0  0  0  0  0  0
    2.3089    0.0646   -3.0314 C   0  0  0  0  0  0  0  0  0  0  0  0
    3.4018    0.2487   -3.9151 C   0  0  0  0  0  0  0  0  0  0  0  0
    3.3539   -0.1647   -5.2481 C   0  0  0  0  0  0  0  0  0  0  0  0
    2.2098   -0.7750   -5.7398 C   0  0  0  0  0  0  0  0  0  0  0  0
    1.1180   -0.9710   -4.8969 C   0  0  0  0  0  0  0  0  0  0  0  0
    1.1552   -0.5604   -3.5529 C   0  0  0  0  0  0  0  0  0  0  0  0
    0.0445   -0.7698   -2.7264 C   0  0  0  0  0  0  0  0  0  0  0  0
    0.0336   -0.3780   -1.3813 C   0  0  0  0  0  0  0  0  0  0  0  0
   -1.1061   -0.6092   -0.5885 C   0  0  0  0  0  0  0  0  0  0  0  0
   -1.1831   -0.2421    0.7763 C   0  0  0  0  0  0  0  0  0  0  0  0
   -3.4190   -2.5851    1.1986 C   0  0  0  0  0  0  0  0  0  0  0  0
   -4.4219   -3.4215    0.7633 C   0  0  0  0  0  0  0  0  0  0  0  0
   -4.9046    0.8669    0.2048 C   0  0  0  0  0  0  0  0  0  0  0  0
   -3.9943    1.9007    0.5578 C   0  0  0  0  0  0  0  0  0  0  0  0
   -4.2193    3.2604    0.3402 C   0  0  0  0  0  0  0  0  0  0  0  0
   -5.3918    3.6688   -0.2537 C   0  0  0  0  0  0  0  0  0  0  0  0
   -9.3966    2.6454   -2.0930 H   0  0  0  0  0  0  0  0  0  0  0  0
   -7.6738    4.2464   -1.3926 H   0  0  0  0  0  0  0  0  0  0  0  0
   -9.0835    0.2831   -1.7618 H   0  0  0  0  0  0  0  0  0  0  0  0
   -8.7956   -1.6729   -1.4911 H   0  0  0  0  0  0  0  0  0  0  0  0
   -8.4579   -4.0289   -1.1554 H   0  0  0  0  0  0  0  0  0  0  0  0
   -6.4081   -4.8575   -0.0977 H   0  0  0  0  0  0  0  0  0  0  0  0
   -4.3428   -0.7097    3.5123 H   0  0  0  0  0  0  0  0  0  0  0  0
   -4.2370    0.0141    5.8413 H   0  0  0  0  0  0  0  0  0  0  0  0
   -2.1892    1.1007    6.7253 H   0  0  0  0  0  0  0  0  0  0  0  0
   -0.2507    1.4531    5.2529 H   0  0  0  0  0  0  0  0  0  0  0  0
    0.8204    1.2547    3.0940 H   0  0  0  0  0  0  0  0  0  0  0  0
    1.9469    1.0923    1.0062 H   0  0  0  0  0  0  0  0  0  0  0  0
    3.0191   -1.6865   -1.0608 H   0  0  0  0  0  0  0  0  0  0  0  0
    3.4676   -3.9884   -0.7260 H   0  0  0  0  0  0  0  0  0  0  0  0
    5.5906   -4.7361    0.2524 H   0  0  0  0  0  0  0  0  0  0  0  0
    9.1378   -0.2924    1.5530 H   0  0  0  0  0  0  0  0  0  0  0  0
    9.4709   -2.6576    1.8405 H   0  0  0  0  0  0  0  0  0  0  0  0
    7.7349   -4.2565    1.1691 H   0  0  0  0  0  0  0  0  0  0  0  0
    8.8251    1.6667    1.3386 H   0  0  0  0  0  0  0  0  0  0  0  0
    8.4680    4.0255    1.0457 H   0  0  0  0  0  0  0  0  0  0  0  0
    6.3929    4.8591    0.0442 H   0  0  0  0  0  0  0  0  0  0  0  0
    4.2738    4.4991   -0.9202 H   0  0  0  0  0  0  0  0  0  0  0  0
    2.5035    3.0318   -1.6820 H   0  0  0  0  0  0  0  0  0  0  0  0
    4.3206    0.7175   -3.5670 H   0  0  0  0  0  0  0  0  0  0  0  0
    4.2136   -0.0098   -5.8949 H   0  0  0  0  0  0  0  0  0  0  0  0
    2.1658   -1.0996   -6.7759 H   0  0  0  0  0  0  0  0  0  0  0  0
    0.2290   -1.4514   -5.3005 H   0  0  0  0  0  0  0  0  0  0  0  0
   -0.8401   -1.2508   -3.1428 H   0  0  0  0  0  0  0  0  0  0  0  0
   -1.9666   -1.0872   -1.0564 H   0  0  0  0  0  0  0  0  0  0  0  0
   -2.5390   -3.0253    1.6682 H   0  0  0  0  0  0  0  0  0  0  0  0
   -4.3050   -4.4941    0.8993 H   0  0  0  0  0  0  0  0  0  0  0  0
   -3.0457    1.6913    1.0268 H   0  0  0  0  0  0  0  0  0  0  0  0
   -3.4694    3.9880    0.6389 H   0  0  0  0  0  0  0  0  0  0  0  0
   -5.5572    4.7306   -0.4179 H   0  0  0  0  0  0  0  0  0  0  0  0
  1  2  4  0
  2  3  4  0
  3  4  4  0
  4  5  4  0
  5  6  4  0
  5  7  4  0
  7  8  4  0
  8  9  4  0
  9 10  4  0
 10 11  4  0
 11 12  4  0
 12 13  4  0
 13 14  4  0
 14 15  1  0
 15 16  4  0
 16 17  4  0
 17 18  4  0
 18 19  4  0
 19 20  4  0
 20 21  4  0
 21 22  4  0
 22 23  4  0
 23 24  4  0
 24 25  4  0
 25 26  4  0
 26 27  1  0
 27 28  4  0
 28 29  4  0
 29 30  4  0
 30 31  4  0
 31 32  4  0
 32 33  4  0
 33 34  4  0
 34 35  4  0
 35 36  4  0
 36 37  4  0
 37 38  4  0
 35 39  4  0
 39 40  4  0
 40 41  4  0
 41 42  4  0
 42 43  4  0
 43 44  4  0
 43 45  4  0
 45 46  4  0
 26 47  4  0
 47 48  4  0
 48 49  4  0
 49 50  4  0
 50 51  4  0
 51 52  4  0
 52 53  4  0
 53 54  4  0
 54 55  4  0
 55 56  4  0
 14 57  4  0
 57 58  4  0
 13 59  4  0
 59 60  4  0
 60 61  4  0
 61 62  4  0
  6  1  4  0
 12  7  4  0
 56 15  4  0
 62  3  4  0
 59  4  4  0
 58 11  4  0
 21 16  4  0
 56 23  4  0
 54 25  4  0
 46 27  4  0
 52 47  4  0
 44 28  4  0
 34 29  4  0
 44 39  4  0
 38 33  4  0
  1 63  1  0
  2 64  1  0
  6 65  1  0
  8 66  1  0
  9 67  1  0
 10 68  1  0
 17 69  1  0
 18 70  1  0
 19 71  1  0
 20 72  1  0
 22 73  1  0
 24 74  1  0
 30 75  1  0
 31 76  1  0
 32 77  1  0
 36 78  1  0
 37 79  1  0
 38 80  1  0
 40 81  1  0
 41 82  1  0
 42 83  1  0
 45 84  1  0
 46 85  1  0
 48 86  1  0
 49 87  1  0
 50 88  1  0
 51 89  1  0
 53 90  1  0
 55 91  1  0
 57 92  1  0
 58 93  1  0
 60 94  1  0
 61 95  1  0
 62 96  1  0
M  END
