
     RDKit          3D

 92106  0  0  0  0  0  0  0  0999 V2000
    5.1784   -6.9383    1.4101 C   0  0  0  0  0  0  0  0  0  0  0  0
    6.0926   -6.0882    0.8333 C   0  0  0  0  0  0  0  0  0  0  0  0
    5.6506   -4.7226    0.8152 C   0  0  0  0  0  0  0  0  0  0  0  0
    6.2816   -3.5561    0.3202 C   0  0  0  0  0  0  0  0  0  0  0  0
    5.6573   -2.2980    0.4071 C   0  0  0  0  0  0  0  0  0  0  0  0
    4.3896   -2.1921    0.9938 C   0  0  0  0  0  0  0  0  0  0  0  0
    3.7486   -3.3399    1.4900 C   0  0  0  0  0  0  0  0  0  0  0  0
    4.3882   -4.5912    1.3939 C   0  0  0  0  0  0  0  0  0  0  0  0
    3.7826   -6.1118    1.9350 S   0  0  0  0  0  0  0  0  0  0  0  0
    3.7801   -0.9284    1.0749 C   0  0  0  0  0  0  0  0  0  0  0  0
    4.3944    0.2511    0.5879 C   0  0  0  0  0  0  0  0  0  0  0  0
    5.6654    0.1229    0.0002 C   0  0  0  0  0  0  0  0  0  0  0  0
    6.2783   -1.1394   -0.0830 C   0  0  0  0  0  0  0  0  0  0  0  0
    6.3223    1.2551   -0.5045 C   0  0  0  0  0  0  0  0  0  0  0  0
    5.7400    2.5409   -0.4402 C   0  0  0  0  0  0  0  0  0  0  0  0
    6.2469    3.8041   -0.8983 C   0  0  0  0  0  0  0  0  0  0  0  0
    5.3840    4.8449   -0.6596 C   0  0  0  0  0  0  0  0  0  0  0  0
    3.9626    4.3245    0.1154 S   0  0  0  0  0  0  0  0  0  0  0  0
    4.4789    2.6672    0.1458 C   0  0  0  0  0  0  0  0  0  0  0  0
    3.7818    1.5402    0.6689 C   0  0  0  0  0  0  0  0  0  0  0  0
    2.4389    1.7387    1.2735 C   0  0  0  0  0  0  0  0  0  0  0  0
    2.3213    2.0011    2.6764 C   0  0  0  0  0  0  0  0  0  0  0  0
    3.4268    2.0968    3.5591 C   0  0  0  0  0  0  0  0  0  0  0  0
    3.2659    2.3524    4.9227 C   0  0  0  0  0  0  0  0  0  0  0  0
    1.9928    2.5202    5.4464 C   0  0  0  0  0  0  0  0  0  0  0  0
    0.8853    2.4317    4.6058 C   0  0  0  0  0  0  0  0  0  0  0  0
    1.0349    2.1742    3.2318 C   0  0  0  0  0  0  0  0  0  0  0  0
   -0.0947    2.0859    2.4092 C   0  0  0  0  0  0  0  0  0  0  0  0
    0.0054    1.8281    1.0358 C   0  0  0  0  0  0  0  0  0  0  0  0
   -1.1565    1.7412    0.2460 C   0  0  0  0  0  0  0  0  0  0  0  0
   -1.1273    1.4748   -1.1444 C   0  0  0  0  0  0  0  0  0  0  0  0
   -2.2964    1.3695   -1.9671 C   0  0  0  0  0  0  0  0  0  0  0  0
   -3.6423    1.5411   -1.3605 C   0  0  0  0  0  0  0  0  0  0  0  0
   -4.2279    2.8396   -1.3307 C   0  0  0  0  0  0  0  0  0  0  0  0
   -3.5631    4.3267   -1.9316 S   0  0  0  0  0  0  0  0  0  0  0  0
   -4.9236    5.2295   -1.4563 C   0  0  0  0  0  0  0  0  0  0  0  0
   -5.8732    4.4433   -0.8522 C   0  0  0  0  0  0  0  0  0  0  0  0
   -5.4884    3.0619   -0.7724 C   0  0  0  0  0  0  0  0  0  0  0  0
   -6.1843    1.9584   -0.2294 C   0  0  0  0  0  0  0  0  0  0  0  0
   -5.6374    0.6664   -0.2378 C   0  0  0  0  0  0  0  0  0  0  0  0
   -6.3583   -0.4054    0.3174 C   0  0  0  0  0  0  0  0  0  0  0  0
   -5.8469   -1.7119    0.3355 C   0  0  0  0  0  0  0  0  0  0  0  0
   -4.5830   -1.9530   -0.2183 C   0  0  0  0  0  0  0  0  0  0  0  0
   -4.0493   -3.2527   -0.2093 C   0  0  0  0  0  0  0  0  0  0  0  0
   -4.7923   -4.3065    0.3573 C   0  0  0  0  0  0  0  0  0  0  0  0
   -4.3256   -5.9620    0.4722 S   0  0  0  0  0  0  0  0  0  0  0  0
   -5.7805   -6.3950    1.2485 C   0  0  0  0  0  0  0  0  0  0  0  0
   -6.6113   -5.3133    1.4240 C   0  0  0  0  0  0  0  0  0  0  0  0
   -6.0536   -4.0930    0.9136 C   0  0  0  0  0  0  0  0  0  0  0  0
   -6.5756   -2.7771    0.8970 C   0  0  0  0  0  0  0  0  0  0  0  0
   -3.8672   -0.8799   -0.7757 C   0  0  0  0  0  0  0  0  0  0  0  0
   -4.3676    0.4444   -0.7997 C   0  0  0  0  0  0  0  0  0  0  0  0
   -2.1772    1.0875   -3.3664 C   0  0  0  0  0  0  0  0  0  0  0  0
   -3.2827    0.9569   -4.2442 C   0  0  0  0  0  0  0  0  0  0  0  0
   -3.1205    0.6818   -5.6039 C   0  0  0  0  0  0  0  0  0  0  0  0
   -1.8463    0.5277   -6.1288 C   0  0  0  0  0  0  0  0  0  0  0  0
   -0.7387    0.6479   -5.2925 C   0  0  0  0  0  0  0  0  0  0  0  0
   -0.8897    0.9235   -3.9221 C   0  0  0  0  0  0  0  0  0  0  0  0
    0.2395    1.0334   -3.1023 C   0  0  0  0  0  0  0  0  0  0  0  0
    0.1373    1.3013   -1.7311 C   0  0  0  0  0  0  0  0  0  0  0  0
    1.2988    1.3924   -0.9424 C   0  0  0  0  0  0  0  0  0  0  0  0
    1.2696    1.6522    0.4490 C   0  0  0  0  0  0  0  0  0  0  0  0
    5.2636   -8.0074    1.5486 H   0  0  0  0  0  0  0  0  0  0  0  0
    7.0429   -6.4250    0.4377 H   0  0  0  0  0  0  0  0  0  0  0  0
    7.2661   -3.6459   -0.1327 H   0  0  0  0  0  0  0  0  0  0  0  0
    2.7649   -3.2722    1.9482 H   0  0  0  0  0  0  0  0  0  0  0  0
    2.7931   -0.8651    1.5334 H   0  0  0  0  0  0  0  0  0  0  0  0
    7.2635   -1.2233   -0.5400 H   0  0  0  0  0  0  0  0  0  0  0  0
    7.3050    1.1551   -0.9611 H   0  0  0  0  0  0  0  0  0  0  0  0
    7.2067    3.9341   -1.3831 H   0  0  0  0  0  0  0  0  0  0  0  0
    5.5204    5.8894   -0.9039 H   0  0  0  0  0  0  0  0  0  0  0  0
    4.4424    1.9714    3.1884 H   0  0  0  0  0  0  0  0  0  0  0  0
    4.1372    2.4200    5.5686 H   0  0  0  0  0  0  0  0  0  0  0  0
    1.8588    2.7201    6.5058 H   0  0  0  0  0  0  0  0  0  0  0  0
   -0.1056    2.5668    5.0348 H   0  0  0  0  0  0  0  0  0  0  0  0
   -1.0818    2.2197    2.8507 H   0  0  0  0  0  0  0  0  0  0  0  0
   -2.1180    1.8845    0.7375 H   0  0  0  0  0  0  0  0  0  0  0  0
   -4.9638    6.2942   -1.6415 H   0  0  0  0  0  0  0  0  0  0  0  0
   -6.8114    4.8352   -0.4792 H   0  0  0  0  0  0  0  0  0  0  0  0
   -7.1670    2.1302    0.2056 H   0  0  0  0  0  0  0  0  0  0  0  0
   -7.3409   -0.2185    0.7481 H   0  0  0  0  0  0  0  0  0  0  0  0
   -3.0682   -3.4525   -0.6335 H   0  0  0  0  0  0  0  0  0  0  0  0
   -5.9584   -7.4210    1.5400 H   0  0  0  0  0  0  0  0  0  0  0  0
   -7.5819   -5.3861    1.8989 H   0  0  0  0  0  0  0  0  0  0  0  0
   -7.5578   -2.5985    1.3283 H   0  0  0  0  0  0  0  0  0  0  0  0
   -2.8860   -1.0867   -1.2033 H   0  0  0  0  0  0  0  0  0  0  0  0
   -4.2993    1.0707   -3.8729 H   0  0  0  0  0  0  0  0  0  0  0  0
   -3.9921    0.5905   -6.2463 H   0  0  0  0  0  0  0  0  0  0  0  0
   -1.7120    0.3148   -7.1857 H   0  0  0  0  0  0  0  0  0  0  0  0
    0.2533    0.5241   -5.7222 H   0  0  0  0  0  0  0  0  0  0  0  0
    1.2273    0.9032   -3.5431 H   0  0  0  0  0  0  0  0  0  0  0  0
    2.2601    1.2525   -1.4349 H   0  0  0  0  0  0  0  0  0  0  0  0
  1  2  4  0
  2  3  4  0
  3  4  4  0
  4  5  4  0
  5  6  4  0
  6  7  4  0
  7  8  4  0
  8  9  4  0
  6 10  4  0
 10 11  4  0
 11 12  4  0
 12 13  4  0
 12 14  4  0
 14 15  4  0
 15 16  4  0
 16 17  4  0
 17 18  4  0
 18 19  4  0
 19 20  4  0
 20 21  1  0
 21 22  4  0
 22 23  4  0
 23 24  4  0
 24 25  4  0
 25 26  4  0
 26 27  4  0
 27 28  4  0
 28 29  4  0
 29 30  4  0
 30 31  4  0
 31 32  4  0
 32 33  1  0
 33 34  4  0
 34 35  4  0
 35 36  4  0
 36 37  4  0
 37 38  4  0
 38 39  4  0
 39 40  4  0
 40 41  4  0
 41 42  4  0
 42 43  4  0
 43 44  4  0
 44 45  4  0
 45 46  4  0
 46 47  4  0
 47 48  4  0
 48 49  4  0
 49 50  4  0
 43 51  4  0
 51 52  4  0
 32 53  4  0
 53 54  4  0
 54 55  4  0
 55 56  4  0
 56 57  4  0
 57 58  4  0
 58 59  4  0
 59 60  4  0
 60 61  4  0
 61 62  4  0
  9  1  4  0
 20 11  4  0
 62 21  4  0
  8  3  4  0
 19 15  4  0
 27 22  4  0
 62 29  4  0
 13  5  4  0
 60 31  4  0
 52 33  4  0
 58 53  4  0
 38 34  4  0
 52 40  4  0
 50 42  4  0
 49 45  4  0
  1 63  1  0
  2 64  1  0
  4 65  1  0
  7 66  1  0
 10 67  1  0
 13 68  1  0
 14 69  1  0
 16 70  1  0
 17 71  1  0
 23 72  1  0
 24 73  1  0
 25 74  1  0
 26 75  1  0
 28 76  1  0
 30 77  1  0
 36 78  1  0
 37 79  1  0
 39 80  1  0
 41 81  1  0
 44 82  1  0
 47 83  1  0
 48 84  1  0
 50 85  1  0
 51 86  1  0
 54 87  1  0
 55 88  1  0
 56 89  1  0
 57 90  1  0
 59 91  1  0
 61 92  1  0
M  END
