
     RDKit          3D

 92106  0  0  0  0  0  0  0  0999 V2000
    6.9130    2.2156   -6.6680 C   0  0  0  0  0  0  0  0  0  0  0  0
    5.9341    2.5837   -5.7753 C   0  0  0  0  0  0  0  0  0  0  0  0
    6.0257    1.8819   -4.5266 C   0  0  0  0  0  0  0  0  0  0  0  0
    5.2251    1.9652   -3.3624 C   0  0  0  0  0  0  0  0  0  0  0  0
    5.4987    1.1723   -2.2331 C   0  0  0  0  0  0  0  0  0  0  0  0
    6.5804    0.2820   -2.2557 C   0  0  0  0  0  0  0  0  0  0  0  0
    6.8375   -0.5031   -1.1214 C   0  0  0  0  0  0  0  0  0  0  0  0
    6.0415   -0.4213    0.0342 C   0  0  0  0  0  0  0  0  0  0  0  0
    6.3349   -1.2292    1.1415 C   0  0  0  0  0  0  0  0  0  0  0  0
    5.5387   -1.1525    2.2983 C   0  0  0  0  0  0  0  0  0  0  0  0
    5.7447   -2.0683    3.7446 S   0  0  0  0  0  0  0  0  0  0  0  0
    4.4086   -1.3271    4.4940 C   0  0  0  0  0  0  0  0  0  0  0  0
    3.8109   -0.4017    3.6726 C   0  0  0  0  0  0  0  0  0  0  0  0
    4.4526   -0.2825    2.3857 C   0  0  0  0  0  0  0  0  0  0  0  0
    4.1573    0.5441    1.2584 C   0  0  0  0  0  0  0  0  0  0  0  0
    3.0000    1.4675    1.3774 C   0  0  0  0  0  0  0  0  0  0  0  0
    3.2018    2.8057    1.8453 C   0  0  0  0  0  0  0  0  0  0  0  0
    4.4634    3.3284    2.2249 C   0  0  0  0  0  0  0  0  0  0  0  0
    4.6169    4.6438    2.6683 C   0  0  0  0  0  0  0  0  0  0  0  0
    3.5120    5.4783    2.7454 C   0  0  0  0  0  0  0  0  0  0  0  0
    2.2573    4.9950    2.3810 C   0  0  0  0  0  0  0  0  0  0  0  0
    2.0906    3.6728    1.9341 C   0  0  0  0  0  0  0  0  0  0  0  0
    0.8190    3.2104    1.5764 C   0  0  0  0  0  0  0  0  0  0  0  0
    0.6064    1.8994    1.1317 C   0  0  0  0  0  0  0  0  0  0  0  0
   -0.6938    1.4631    0.8114 C   0  0  0  0  0  0  0  0  0  0  0  0
   -1.0070    0.1390    0.4234 C   0  0  0  0  0  0  0  0  0  0  0  0
   -2.3282   -0.3709    0.2027 C   0  0  0  0  0  0  0  0  0  0  0  0
   -3.5687    0.0540    1.0195 C   0  0  0  0  0  0  0  0  0  0  0  0
   -3.5115    0.9982    2.0989 C   0  0  0  0  0  0  0  0  0  0  0  0
   -2.4906    1.3145    3.0769 C   0  0  0  0  0  0  0  0  0  0  0  0
   -2.7931    2.3870    3.8815 C   0  0  0  0  0  0  0  0  0  0  0  0
   -4.3432    2.9931    3.5469 S   0  0  0  0  0  0  0  0  0  0  0  0
   -4.6628    1.7248    2.4220 C   0  0  0  0  0  0  0  0  0  0  0  0
   -5.9103    1.4148    1.8736 C   0  0  0  0  0  0  0  0  0  0  0  0
   -6.0277    0.1725    1.2605 C   0  0  0  0  0  0  0  0  0  0  0  0
   -7.3125   -0.3519    1.0316 C   0  0  0  0  0  0  0  0  0  0  0  0
   -7.5032   -1.6661    0.5869 C   0  0  0  0  0  0  0  0  0  0  0  0
   -6.3800   -2.4749    0.3909 C   0  0  0  0  0  0  0  0  0  0  0  0
   -6.5469   -3.8132   -0.0104 C   0  0  0  0  0  0  0  0  0  0  0  0
   -7.8353   -4.3555   -0.2316 C   0  0  0  0  0  0  0  0  0  0  0  0
   -8.2377   -5.6703   -0.6432 C   0  0  0  0  0  0  0  0  0  0  0  0
   -9.6025   -5.8035   -0.7466 C   0  0  0  0  0  0  0  0  0  0  0  0
  -10.4157   -4.3577   -0.3530 S   0  0  0  0  0  0  0  0  0  0  0  0
   -8.9397   -3.5258   -0.0360 C   0  0  0  0  0  0  0  0  0  0  0  0
   -8.7913   -2.1863    0.3736 C   0  0  0  0  0  0  0  0  0  0  0  0
   -5.1005   -1.9240    0.5912 C   0  0  0  0  0  0  0  0  0  0  0  0
   -4.8720   -0.5661    0.9351 C   0  0  0  0  0  0  0  0  0  0  0  0
   -2.4047   -1.2910   -0.8959 C   0  0  0  0  0  0  0  0  0  0  0  0
   -3.5086   -1.4159   -1.7805 C   0  0  0  0  0  0  0  0  0  0  0  0
   -3.5738   -2.3969   -2.7742 C   0  0  0  0  0  0  0  0  0  0  0  0
   -2.5146   -3.2732   -2.9434 C   0  0  0  0  0  0  0  0  0  0  0  0
   -1.3709   -3.1194   -2.1655 C   0  0  0  0  0  0  0  0  0  0  0  0
   -1.2885   -2.1076   -1.1924 C   0  0  0  0  0  0  0  0  0  0  0  0
   -0.0729   -1.8637   -0.5606 C   0  0  0  0  0  0  0  0  0  0  0  0
    0.1055   -0.6767    0.1443 C   0  0  0  0  0  0  0  0  0  0  0  0
    1.4060   -0.2681    0.4958 C   0  0  0  0  0  0  0  0  0  0  0  0
    1.6897    1.0158    1.0150 C   0  0  0  0  0  0  0  0  0  0  0  0
    4.9543    0.4700    0.0747 C   0  0  0  0  0  0  0  0  0  0  0  0
    4.7060    1.2547   -1.0765 C   0  0  0  0  0  0  0  0  0  0  0  0
    7.3859    0.1871   -3.4029 C   0  0  0  0  0  0  0  0  0  0  0  0
    7.0974    0.9891   -4.5244 C   0  0  0  0  0  0  0  0  0  0  0  0
    7.9515    1.0281   -6.0213 S   0  0  0  0  0  0  0  0  0  0  0  0
    7.0685    2.5885   -7.6710 H   0  0  0  0  0  0  0  0  0  0  0  0
    5.1783    3.3263   -5.9994 H   0  0  0  0  0  0  0  0  0  0  0  0
    4.3860    2.6577   -3.3512 H   0  0  0  0  0  0  0  0  0  0  0  0
    7.6782   -1.1959   -1.1401 H   0  0  0  0  0  0  0  0  0  0  0  0
    7.1744   -1.9205    1.1163 H   0  0  0  0  0  0  0  0  0  0  0  0
    4.1220   -1.6016    5.5000 H   0  0  0  0  0  0  0  0  0  0  0  0
    2.9437    0.1745    3.9738 H   0  0  0  0  0  0  0  0  0  0  0  0
    5.3565    2.7079    2.1759 H   0  0  0  0  0  0  0  0  0  0  0  0
    5.6009    5.0102    2.9490 H   0  0  0  0  0  0  0  0  0  0  0  0
    3.6239    6.5036    3.0872 H   0  0  0  0  0  0  0  0  0  0  0  0
    1.4027    5.6655    2.4480 H   0  0  0  0  0  0  0  0  0  0  0  0
   -0.0321    3.8864    1.6555 H   0  0  0  0  0  0  0  0  0  0  0  0
   -1.4987    2.1972    0.8437 H   0  0  0  0  0  0  0  0  0  0  0  0
   -1.5542    0.7776    3.1726 H   0  0  0  0  0  0  0  0  0  0  0  0
   -2.1751    2.8336    4.6484 H   0  0  0  0  0  0  0  0  0  0  0  0
   -6.7831    2.0069    2.1338 H   0  0  0  0  0  0  0  0  0  0  0  0
   -8.1862    0.2613    1.2499 H   0  0  0  0  0  0  0  0  0  0  0  0
   -5.6761   -4.4468   -0.1651 H   0  0  0  0  0  0  0  0  0  0  0  0
   -7.5483   -6.4792   -0.8518 H   0  0  0  0  0  0  0  0  0  0  0  0
  -10.1622   -6.6828   -1.0345 H   0  0  0  0  0  0  0  0  0  0  0  0
   -9.6730   -1.5694    0.5263 H   0  0  0  0  0  0  0  0  0  0  0  0
   -4.2435   -2.5890    0.4849 H   0  0  0  0  0  0  0  0  0  0  0  0
   -4.3449   -0.7217   -1.7079 H   0  0  0  0  0  0  0  0  0  0  0  0
   -4.4532   -2.4670   -3.4088 H   0  0  0  0  0  0  0  0  0  0  0  0
   -2.5566   -4.0432   -3.7085 H   0  0  0  0  0  0  0  0  0  0  0  0
   -0.5189   -3.7682   -2.3598 H   0  0  0  0  0  0  0  0  0  0  0  0
    0.7851   -2.4974   -0.7778 H   0  0  0  0  0  0  0  0  0  0  0  0
    2.2286   -0.9577    0.3085 H   0  0  0  0  0  0  0  0  0  0  0  0
    3.8696    1.9533   -1.0762 H   0  0  0  0  0  0  0  0  0  0  0  0
    8.2288   -0.4980   -3.4346 H   0  0  0  0  0  0  0  0  0  0  0  0
  1  2  4  0
  2  3  4  0
  3  4  4  0
  4  5  4  0
  5  6  4  0
  6  7  4  0
  7  8  4  0
  8  9  4  0
  9 10  4  0
 10 11  4  0
 11 12  4  0
 12 13  4  0
 13 14  4  0
 14 15  4  0
 15 16  1  0
 16 17  4  0
 17 18  4  0
 18 19  4  0
 19 20  4  0
 20 21  4  0
 21 22  4  0
 22 23  4  0
 23 24  4  0
 24 25  4  0
 25 26  4  0
 26 27  4  0
 27 28  1  0
 28 29  4  0
 29 30  4  0
 30 31  4  0
 31 32  4  0
 32 33  4  0
 33 34  4  0
 34 35  4  0
 35 36  4  0
 36 37  4  0
 37 38  4  0
 38 39  4  0
 39 40  4  0
 40 41  4  0
 41 42  4  0
 42 43  4  0
 43 44  4  0
 44 45  4  0
 38 46  4  0
 46 47  4  0
 27 48  4  0
 48 49  4  0
 49 50  4  0
 50 51  4  0
 51 52  4  0
 52 53  4  0
 53 54  4  0
 54 55  4  0
 55 56  4  0
 56 57  4  0
 15 58  4  0
 58 59  4  0
  6 60  4  0
 60 61  4  0
 61 62  4  0
 62  1  4  0
 61  3  4  0
 59  5  4  0
 58  8  4  0
 14 10  4  0
 57 16  4  0
 22 17  4  0
 57 24  4  0
 55 26  4  0
 47 28  4  0
 53 48  4  0
 33 29  4  0
 47 35  4  0
 45 37  4  0
 44 40  4  0
  1 63  1  0
  2 64  1  0
  4 65  1  0
  7 66  1  0
  9 67  1  0
 12 68  1  0
 13 69  1  0
 18 70  1  0
 19 71  1  0
 20 72  1  0
 21 73  1  0
 23 74  1  0
 25 75  1  0
 30 76  1  0
 31 77  1  0
 34 78  1  0
 36 79  1  0
 39 80  1  0
 41 81  1  0
 42 82  1  0
 45 83  1  0
 46 84  1  0
 49 85  1  0
 50 86  1  0
 51 87  1  0
 52 88  1  0
 54 89  1  0
 56 90  1  0
 59 91  1  0
 60 92  1  0
M  END
