
     RDKit          3D

 92106  0  0  0  0  0  0  0  0999 V2000
    6.2581   -5.3214   -0.0946 C   0  0  0  0  0  0  0  0  0  0  0  0
    5.2690   -4.5505    0.4698 C   0  0  0  0  0  0  0  0  0  0  0  0
    5.3109   -3.1844    0.0328 C   0  0  0  0  0  0  0  0  0  0  0  0
    4.4876   -2.0816    0.3663 C   0  0  0  0  0  0  0  0  0  0  0  0
    4.6889   -0.7869   -0.1789 C   0  0  0  0  0  0  0  0  0  0  0  0
    5.7554   -0.6212   -1.0807 C   0  0  0  0  0  0  0  0  0  0  0  0
    5.9960    0.6370   -1.6458 C   0  0  0  0  0  0  0  0  0  0  0  0
    5.2056    1.7532   -1.3464 C   0  0  0  0  0  0  0  0  0  0  0  0
    5.5004    2.9892   -1.9486 C   0  0  0  0  0  0  0  0  0  0  0  0
    4.7140    4.1171   -1.6553 C   0  0  0  0  0  0  0  0  0  0  0  0
    4.9035    5.7115   -2.2801 S   0  0  0  0  0  0  0  0  0  0  0  0
    3.5723    6.2971   -1.3898 C   0  0  0  0  0  0  0  0  0  0  0  0
    2.9889    5.3103   -0.6301 C   0  0  0  0  0  0  0  0  0  0  0  0
    3.6398    4.0396   -0.7737 C   0  0  0  0  0  0  0  0  0  0  0  0
    3.3608    2.7856   -0.1783 C   0  0  0  0  0  0  0  0  0  0  0  0
    4.1301    1.6242   -0.4493 C   0  0  0  0  0  0  0  0  0  0  0  0
    3.8690    0.3443    0.1398 C   0  0  0  0  0  0  0  0  0  0  0  0
    2.7301    0.1868    1.0956 C   0  0  0  0  0  0  0  0  0  0  0  0
    2.9423    0.3962    2.4970 C   0  0  0  0  0  0  0  0  0  0  0  0
    4.1896    0.7613    3.0625 C   0  0  0  0  0  0  0  0  0  0  0  0
    4.3507    0.9567    4.4360 C   0  0  0  0  0  0  0  0  0  0  0  0
    3.2684    0.7920    5.2876 C   0  0  0  0  0  0  0  0  0  0  0  0
    2.0289    0.4319    4.7638 C   0  0  0  0  0  0  0  0  0  0  0  0
    1.8552    0.2320    3.3834 C   0  0  0  0  0  0  0  0  0  0  0  0
    0.5992   -0.1281    2.8828 C   0  0  0  0  0  0  0  0  0  0  0  0
    0.3757   -0.3224    1.5139 C   0  0  0  0  0  0  0  0  0  0  0  0
   -0.9127   -0.6477    1.0485 C   0  0  0  0  0  0  0  0  0  0  0  0
   -1.2486   -0.7661   -0.3223 C   0  0  0  0  0  0  0  0  0  0  0  0
   -2.5742   -0.9508   -0.8415 C   0  0  0  0  0  0  0  0  0  0  0  0
   -3.8525   -0.3063   -0.2044 C   0  0  0  0  0  0  0  0  0  0  0  0
   -5.1704   -0.4680   -0.7448 C   0  0  0  0  0  0  0  0  0  0  0  0
   -5.4769   -0.5538   -2.1288 C   0  0  0  0  0  0  0  0  0  0  0  0
   -6.7767   -0.8276   -2.6215 C   0  0  0  0  0  0  0  0  0  0  0  0
   -7.2535   -1.0026   -3.9632 C   0  0  0  0  0  0  0  0  0  0  0  0
   -8.5996   -1.2792   -4.0177 C   0  0  0  0  0  0  0  0  0  0  0  0
   -9.3040   -1.3206   -2.4647 S   0  0  0  0  0  0  0  0  0  0  0  0
   -7.8056   -0.9611   -1.6951 C   0  0  0  0  0  0  0  0  0  0  0  0
   -7.5732   -0.7725   -0.3226 C   0  0  0  0  0  0  0  0  0  0  0  0
   -6.2769   -0.4622    0.1276 C   0  0  0  0  0  0  0  0  0  0  0  0
   -6.0994   -0.0746    1.4523 C   0  0  0  0  0  0  0  0  0  0  0  0
   -4.9160    0.5513    1.8320 C   0  0  0  0  0  0  0  0  0  0  0  0
   -3.8217    0.5501    0.9456 C   0  0  0  0  0  0  0  0  0  0  0  0
   -2.7949    1.4857    1.2381 C   0  0  0  0  0  0  0  0  0  0  0  0
   -2.7219    2.2044    2.4564 C   0  0  0  0  0  0  0  0  0  0  0  0
   -1.7259    3.1098    2.9522 C   0  0  0  0  0  0  0  0  0  0  0  0
   -2.0145    3.5790    4.2122 C   0  0  0  0  0  0  0  0  0  0  0  0
   -3.4888    2.9550    4.8013 S   0  0  0  0  0  0  0  0  0  0  0  0
   -3.7579    2.0368    3.3692 C   0  0  0  0  0  0  0  0  0  0  0  0
   -4.8670    1.2302    3.0639 C   0  0  0  0  0  0  0  0  0  0  0  0
   -2.6129   -1.8334   -1.9721 C   0  0  0  0  0  0  0  0  0  0  0  0
   -3.6449   -2.7685   -2.2495 C   0  0  0  0  0  0  0  0  0  0  0  0
   -3.6805   -3.5332   -3.4196 C   0  0  0  0  0  0  0  0  0  0  0  0
   -2.6565   -3.4185   -4.3446 C   0  0  0  0  0  0  0  0  0  0  0  0
   -1.5691   -2.5985   -4.0585 C   0  0  0  0  0  0  0  0  0  0  0  0
   -1.5133   -1.8617   -2.8617 C   0  0  0  0  0  0  0  0  0  0  0  0
   -0.3322   -1.2132   -2.5140 C   0  0  0  0  0  0  0  0  0  0  0  0
   -0.1518   -0.7793   -1.2037 C   0  0  0  0  0  0  0  0  0  0  0  0
    1.1376   -0.4312   -0.7555 C   0  0  0  0  0  0  0  0  0  0  0  0
    1.4325   -0.1735    0.6033 C   0  0  0  0  0  0  0  0  0  0  0  0
    6.5856   -1.7025   -1.4246 C   0  0  0  0  0  0  0  0  0  0  0  0
    6.3532   -2.9709   -0.8644 C   0  0  0  0  0  0  0  0  0  0  0  0
    7.2447   -4.4171   -1.1513 S   0  0  0  0  0  0  0  0  0  0  0  0
    6.4485   -6.3740    0.0636 H   0  0  0  0  0  0  0  0  0  0  0  0
    4.5405   -4.9429    1.1688 H   0  0  0  0  0  0  0  0  0  0  0  0
    3.6768   -2.2601    1.0696 H   0  0  0  0  0  0  0  0  0  0  0  0
    6.8272    0.7512   -2.3423 H   0  0  0  0  0  0  0  0  0  0  0  0
    6.3330    3.0857   -2.6415 H   0  0  0  0  0  0  0  0  0  0  0  0
    3.2801    7.3355   -1.4646 H   0  0  0  0  0  0  0  0  0  0  0  0
    2.1295    5.4847    0.0055 H   0  0  0  0  0  0  0  0  0  0  0  0
    2.5198    2.7366    0.5100 H   0  0  0  0  0  0  0  0  0  0  0  0
    5.0641    0.8999    2.4292 H   0  0  0  0  0  0  0  0  0  0  0  0
    5.3229    1.2363    4.8336 H   0  0  0  0  0  0  0  0  0  0  0  0
    3.3863    0.9418    6.3574 H   0  0  0  0  0  0  0  0  0  0  0  0
    1.1909    0.3069    5.4471 H   0  0  0  0  0  0  0  0  0  0  0  0
   -0.2340   -0.2439    3.5762 H   0  0  0  0  0  0  0  0  0  0  0  0
   -1.6934   -0.8197    1.7900 H   0  0  0  0  0  0  0  0  0  0  0  0
   -4.6891   -0.4000   -2.8641 H   0  0  0  0  0  0  0  0  0  0  0  0
   -6.6258   -0.9368   -4.8435 H   0  0  0  0  0  0  0  0  0  0  0  0
   -9.2040   -1.4585   -4.8962 H   0  0  0  0  0  0  0  0  0  0  0  0
   -8.4104   -0.8098    0.3701 H   0  0  0  0  0  0  0  0  0  0  0  0
   -6.9483   -0.0821    2.1344 H   0  0  0  0  0  0  0  0  0  0  0  0
   -2.0107    1.6684    0.5053 H   0  0  0  0  0  0  0  0  0  0  0  0
   -0.8299    3.3839    2.4084 H   0  0  0  0  0  0  0  0  0  0  0  0
   -1.4285    4.2596    4.8146 H   0  0  0  0  0  0  0  0  0  0  0  0
   -5.6999    1.1812    3.7611 H   0  0  0  0  0  0  0  0  0  0  0  0
   -4.4434   -2.9260   -1.5257 H   0  0  0  0  0  0  0  0  0  0  0  0
   -4.5087   -4.2144   -3.5967 H   0  0  0  0  0  0  0  0  0  0  0  0
   -2.6758   -4.0026   -5.2604 H   0  0  0  0  0  0  0  0  0  0  0  0
   -0.7344   -2.5798   -4.7567 H   0  0  0  0  0  0  0  0  0  0  0  0
    0.5125   -1.2233   -3.2005 H   0  0  0  0  0  0  0  0  0  0  0  0
    1.9449   -0.4041   -1.4870 H   0  0  0  0  0  0  0  0  0  0  0  0
    7.4096   -1.5711   -2.1219 H   0  0  0  0  0  0  0  0  0  0  0  0
  1  2  4  0
  2  3  4  0
  3  4  4  0
  4  5  4  0
  5  6  4  0
  6  7  4  0
  7  8  4  0
  8  9  4  0
  9 10  4  0
 10 11  4  0
 11 12  4  0
 12 13  4  0
 13 14  4  0
 14 15  4  0
 15 16  4  0
 16 17  4  0
 17 18  1  0
 18 19  4  0
 19 20  4  0
 20 21  4  0
 21 22  4  0
 22 23  4  0
 23 24  4  0
 24 25  4  0
 25 26  4  0
 26 27  4  0
 27 28  4  0
 28 29  4  0
 29 30  1  0
 30 31  4  0
 31 32  4  0
 32 33  4  0
 33 34  4  0
 34 35  4  0
 35 36  4  0
 36 37  4  0
 37 38  4  0
 38 39  4  0
 39 40  4  0
 40 41  4  0
 41 42  4  0
 42 43  4  0
 43 44  4  0
 44 45  4  0
 45 46  4  0
 46 47  4  0
 47 48  4  0
 48 49  4  0
 29 50  4  0
 50 51  4  0
 51 52  4  0
 52 53  4  0
 53 54  4  0
 54 55  4  0
 55 56  4  0
 56 57  4  0
 57 58  4  0
 58 59  4  0
  6 60  4  0
 60 61  4  0
 61 62  4  0
 62  1  4  0
 61  3  4  0
 17  5  4  0
 59 18  4  0
 16  8  4  0
 24 19  4  0
 59 26  4  0
 14 10  4  0
 57 28  4  0
 42 30  4  0
 48 44  4  0
 55 50  4  0
 39 31  4  0
 49 41  4  0
 37 33  4  0
  1 63  1  0
  2 64  1  0
  4 65  1  0
  7 66  1  0
  9 67  1  0
 12 68  1  0
 13 69  1  0
 15 70  1  0
 20 71  1  0
 21 72  1  0
 22 73  1  0
 23 74  1  0
 25 75  1  0
 27 76  1  0
 32 77  1  0
 34 78  1  0
 35 79  1  0
 38 80  1  0
 40 81  1  0
 43 82  1  0
 45 83  1  0
 46 84  1  0
 49 85  1  0
 51 86  1  0
 52 87  1  0
 53 88  1  0
 54 89  1  0
 56 90  1  0
 58 91  1  0
 60 92  1  0
M  END
