
     RDKit          3D

 92106  0  0  0  0  0  0  0  0999 V2000
  -14.9937   -0.6384    1.2369 C   0  0  0  0  0  0  0  0  0  0  0  0
  -14.0771   -1.3520    0.5009 C   0  0  0  0  0  0  0  0  0  0  0  0
  -12.7774   -0.7428    0.4866 C   0  0  0  0  0  0  0  0  0  0  0  0
  -11.5763   -1.1496   -0.1426 C   0  0  0  0  0  0  0  0  0  0  0  0
  -10.3985   -0.3898   -0.0235 C   0  0  0  0  0  0  0  0  0  0  0  0
  -10.4096    0.7943    0.7322 C   0  0  0  0  0  0  0  0  0  0  0  0
   -9.2278    1.5453    0.8448 C   0  0  0  0  0  0  0  0  0  0  0  0
   -8.0358    1.1418    0.2207 C   0  0  0  0  0  0  0  0  0  0  0  0
   -6.8622    1.9039    0.3435 C   0  0  0  0  0  0  0  0  0  0  0  0
   -5.6824    1.4728   -0.2939 C   0  0  0  0  0  0  0  0  0  0  0  0
   -4.1465    2.2526   -0.2685 S   0  0  0  0  0  0  0  0  0  0  0  0
   -3.4351    1.0533   -1.2536 C   0  0  0  0  0  0  0  0  0  0  0  0
   -2.0124    1.1557   -1.6212 C   0  0  0  0  0  0  0  0  0  0  0  0
   -1.6421    1.8559   -2.8120 C   0  0  0  0  0  0  0  0  0  0  0  0
   -2.5627    2.4858   -3.6890 C   0  0  0  0  0  0  0  0  0  0  0  0
   -2.1472    3.1586   -4.8403 C   0  0  0  0  0  0  0  0  0  0  0  0
   -0.7974    3.2217   -5.1521 C   0  0  0  0  0  0  0  0  0  0  0  0
    0.1323    2.6116   -4.3127 C   0  0  0  0  0  0  0  0  0  0  0  0
   -0.2736    1.9315   -3.1510 C   0  0  0  0  0  0  0  0  0  0  0  0
    0.6818    1.3236   -2.3267 C   0  0  0  0  0  0  0  0  0  0  0  0
    0.3254    0.6279   -1.1633 C   0  0  0  0  0  0  0  0  0  0  0  0
    1.3193    0.0251   -0.3697 C   0  0  0  0  0  0  0  0  0  0  0  0
    1.0308   -0.6992    0.8134 C   0  0  0  0  0  0  0  0  0  0  0  0
    2.0173   -1.3265    1.6397 C   0  0  0  0  0  0  0  0  0  0  0  0
    3.4399   -1.2229    1.2715 C   0  0  0  0  0  0  0  0  0  0  0  0
    4.3512   -0.2538    1.6321 C   0  0  0  0  0  0  0  0  0  0  0  0
    5.6535   -0.4724    1.0717 C   0  0  0  0  0  0  0  0  0  0  0  0
    6.8459    0.2804    1.1928 C   0  0  0  0  0  0  0  0  0  0  0  0
    8.0282   -0.1199    0.5443 C   0  0  0  0  0  0  0  0  0  0  0  0
    9.2115    0.6278    0.6630 C   0  0  0  0  0  0  0  0  0  0  0  0
   10.3974    0.2359    0.0198 C   0  0  0  0  0  0  0  0  0  0  0  0
   10.4001   -0.9316   -0.7614 C   0  0  0  0  0  0  0  0  0  0  0  0
    9.2161   -1.6783   -0.8801 C   0  0  0  0  0  0  0  0  0  0  0  0
    8.0301   -1.2872   -0.2370 C   0  0  0  0  0  0  0  0  0  0  0  0
    6.8546   -2.0454   -0.3659 C   0  0  0  0  0  0  0  0  0  0  0  0
    5.6809   -1.6275    0.2910 C   0  0  0  0  0  0  0  0  0  0  0  0
    4.1450   -2.4072    0.2639 S   0  0  0  0  0  0  0  0  0  0  0  0
   11.5779   -1.3370   -1.4109 C   0  0  0  0  0  0  0  0  0  0  0  0
   12.7496   -0.5675   -1.2726 C   0  0  0  0  0  0  0  0  0  0  0  0
   14.2894   -0.8855   -1.9792 S   0  0  0  0  0  0  0  0  0  0  0  0
   14.9825    0.5032   -1.2740 C   0  0  0  0  0  0  0  0  0  0  0  0
   14.0737    1.2025   -0.5150 C   0  0  0  0  0  0  0  0  0  0  0  0
   12.7729    0.5956   -0.5029 C   0  0  0  0  0  0  0  0  0  0  0  0
   11.5778    0.9909    0.1450 C   0  0  0  0  0  0  0  0  0  0  0  0
    1.6472   -2.0313    2.8275 C   0  0  0  0  0  0  0  0  0  0  0  0
    2.5679   -2.6669    3.7001 C   0  0  0  0  0  0  0  0  0  0  0  0
    2.1529   -3.3446    4.8487 C   0  0  0  0  0  0  0  0  0  0  0  0
    0.8032   -3.4073    5.1614 C   0  0  0  0  0  0  0  0  0  0  0  0
   -0.1267   -2.7922    4.3260 C   0  0  0  0  0  0  0  0  0  0  0  0
    0.2788   -2.1069    3.1673 C   0  0  0  0  0  0  0  0  0  0  0  0
   -0.6768   -1.4948    2.3462 C   0  0  0  0  0  0  0  0  0  0  0  0
   -0.3210   -0.7965    1.1841 C   0  0  0  0  0  0  0  0  0  0  0  0
   -1.3150   -0.1922    0.3913 C   0  0  0  0  0  0  0  0  0  0  0  0
   -1.0264    0.5306   -0.7929 C   0  0  0  0  0  0  0  0  0  0  0  0
   -4.3417    0.0743   -1.5982 C   0  0  0  0  0  0  0  0  0  0  0  0
   -5.6476    0.3019   -1.0503 C   0  0  0  0  0  0  0  0  0  0  0  0
   -6.8379   -0.4551   -1.1646 C   0  0  0  0  0  0  0  0  0  0  0  0
   -8.0260   -0.0422   -0.5351 C   0  0  0  0  0  0  0  0  0  0  0  0
   -9.2071   -0.7938   -0.6482 C   0  0  0  0  0  0  0  0  0  0  0  0
  -11.5936    1.2115    1.3625 C   0  0  0  0  0  0  0  0  0  0  0  0
  -12.7628    0.4366    1.2312 C   0  0  0  0  0  0  0  0  0  0  0  0
  -14.3092    0.7666    1.9178 S   0  0  0  0  0  0  0  0  0  0  0  0
  -16.0348   -0.8756    1.4076 H   0  0  0  0  0  0  0  0  0  0  0  0
  -14.3213   -2.2752   -0.0100 H   0  0  0  0  0  0  0  0  0  0  0  0
  -11.5766   -2.0678   -0.7255 H   0  0  0  0  0  0  0  0  0  0  0  0
   -9.2365    2.4634    1.4307 H   0  0  0  0  0  0  0  0  0  0  0  0
   -6.8541    2.8223    0.9251 H   0  0  0  0  0  0  0  0  0  0  0  0
   -3.6305    2.4607   -3.4806 H   0  0  0  0  0  0  0  0  0  0  0  0
   -2.8813    3.6315   -5.4875 H   0  0  0  0  0  0  0  0  0  0  0  0
   -0.4660    3.7438   -6.0457 H   0  0  0  0  0  0  0  0  0  0  0  0
    1.1871    2.6706   -4.5745 H   0  0  0  0  0  0  0  0  0  0  0  0
    1.7346    1.3900   -2.6010 H   0  0  0  0  0  0  0  0  0  0  0  0
    2.3557    0.1233   -0.6911 H   0  0  0  0  0  0  0  0  0  0  0  0
    4.0969    0.5849    2.2695 H   0  0  0  0  0  0  0  0  0  0  0  0
    6.8361    1.1824    1.8007 H   0  0  0  0  0  0  0  0  0  0  0  0
    9.2095    1.5328    1.2685 H   0  0  0  0  0  0  0  0  0  0  0  0
    9.2178   -2.5834   -1.4859 H   0  0  0  0  0  0  0  0  0  0  0  0
    6.8407   -2.9513   -0.9667 H   0  0  0  0  0  0  0  0  0  0  0  0
   11.5956   -2.2378   -2.0188 H   0  0  0  0  0  0  0  0  0  0  0  0
   16.0227    0.7420   -1.4483 H   0  0  0  0  0  0  0  0  0  0  0  0
   14.3241    2.1140    0.0135 H   0  0  0  0  0  0  0  0  0  0  0  0
   11.5847    1.8963    0.7476 H   0  0  0  0  0  0  0  0  0  0  0  0
    3.6352   -2.6429    3.4894 H   0  0  0  0  0  0  0  0  0  0  0  0
    2.8871   -3.8220    5.4924 H   0  0  0  0  0  0  0  0  0  0  0  0
    0.4719   -3.9337    6.0524 H   0  0  0  0  0  0  0  0  0  0  0  0
   -1.1811   -2.8523    4.5889 H   0  0  0  0  0  0  0  0  0  0  0  0
   -1.7292   -1.5613    2.6214 H   0  0  0  0  0  0  0  0  0  0  0  0
   -2.3515   -0.2897    0.7128 H   0  0  0  0  0  0  0  0  0  0  0  0
   -4.0829   -0.7762   -2.2179 H   0  0  0  0  0  0  0  0  0  0  0  0
   -6.8217   -1.3702   -1.7524 H   0  0  0  0  0  0  0  0  0  0  0  0
   -9.1986   -1.7113   -1.2344 H   0  0  0  0  0  0  0  0  0  0  0  0
  -11.6193    2.1255    1.9504 H   0  0  0  0  0  0  0  0  0  0  0  0
  1  2  4  0
  2  3  4  0
  3  4  4  0
  4  5  4  0
  5  6  4  0
  6  7  4  0
  7  8  4  0
  8  9  4  0
  9 10  4  0
 10 11  4  0
 11 12  4  0
 12 13  1  0
 13 14  4  0
 14 15  4  0
 15 16  4  0
 16 17  4  0
 17 18  4  0
 18 19  4  0
 19 20  4  0
 20 21  4  0
 21 22  4  0
 22 23  4  0
 23 24  4  0
 24 25  1  0
 25 26  4  0
 26 27  4  0
 27 28  4  0
 28 29  4  0
 29 30  4  0
 30 31  4  0
 31 32  4  0
 32 33  4  0
 33 34  4  0
 34 35  4  0
 35 36  4  0
 36 37  4  0
 32 38  4  0
 38 39  4  0
 39 40  4  0
 40 41  4  0
 41 42  4  0
 42 43  4  0
 43 44  4  0
 24 45  4  0
 45 46  4  0
 46 47  4  0
 47 48  4  0
 48 49  4  0
 49 50  4  0
 50 51  4  0
 51 52  4  0
 52 53  4  0
 53 54  4  0
 12 55  4  0
 55 56  4  0
 56 57  4  0
 57 58  4  0
 58 59  4  0
  6 60  4  0
 60 61  4  0
 61 62  4  0
 62  1  4  0
 61  3  4  0
 59  5  4  0
 58  8  4  0
 56 10  4  0
 54 13  4  0
 19 14  4  0
 54 21  4  0
 52 23  4  0
 37 25  4  0
 43 39  4  0
 50 45  4  0
 36 27  4  0
 34 29  4  0
 44 31  4  0
  1 63  1  0
  2 64  1  0
  4 65  1  0
  7 66  1  0
  9 67  1  0
 15 68  1  0
 16 69  1  0
 17 70  1  0
 18 71  1  0
 20 72  1  0
 22 73  1  0
 26 74  1  0
 28 75  1  0
 30 76  1  0
 33 77  1  0
 35 78  1  0
 38 79  1  0
 41 80  1  0
 42 81  1  0
 44 82  1  0
 46 83  1  0
 47 84  1  0
 48 85  1  0
 49 86  1  0
 51 87  1  0
 53 88  1  0
 55 89  1  0
 57 90  1  0
 59 91  1  0
 60 92  1  0
M  END
