
     RDKit          3D

 92106  0  0  0  0  0  0  0  0999 V2000
   14.9554    1.5615    0.3326 C   0  0  0  0  0  0  0  0  0  0  0  0
   13.9090    2.2965   -0.1732 C   0  0  0  0  0  0  0  0  0  0  0  0
   12.6779    1.5593   -0.2138 C   0  0  0  0  0  0  0  0  0  0  0  0
   11.3888    1.9426   -0.6562 C   0  0  0  0  0  0  0  0  0  0  0  0
   10.3055    1.0465   -0.6059 C   0  0  0  0  0  0  0  0  0  0  0  0
    9.0262    1.4263   -1.0445 C   0  0  0  0  0  0  0  0  0  0  0  0
    7.9387    0.5385   -0.9970 C   0  0  0  0  0  0  0  0  0  0  0  0
    8.1345   -0.7604   -0.4996 C   0  0  0  0  0  0  0  0  0  0  0  0
    9.4142   -1.1398   -0.0623 C   0  0  0  0  0  0  0  0  0  0  0  0
   10.5021   -0.2526   -0.1087 C   0  0  0  0  0  0  0  0  0  0  0  0
   11.7751   -0.6480    0.3337 C   0  0  0  0  0  0  0  0  0  0  0  0
   12.8470    0.2640    0.2753 C   0  0  0  0  0  0  0  0  0  0  0  0
   14.4762   -0.0166    0.7638 S   0  0  0  0  0  0  0  0  0  0  0  0
    7.0566   -1.6596   -0.4454 C   0  0  0  0  0  0  0  0  0  0  0  0
    5.7850   -1.2497   -0.8914 C   0  0  0  0  0  0  0  0  0  0  0  0
    4.3410   -2.1889   -0.9101 S   0  0  0  0  0  0  0  0  0  0  0  0
    3.4268   -0.9111   -1.5784 C   0  0  0  0  0  0  0  0  0  0  0  0
    1.9945   -1.1051   -1.8634 C   0  0  0  0  0  0  0  0  0  0  0  0
    1.5947   -1.5890   -3.1486 C   0  0  0  0  0  0  0  0  0  0  0  0
    2.4950   -1.9161   -4.1956 C   0  0  0  0  0  0  0  0  0  0  0  0
    2.0523   -2.3876   -5.4336 C   0  0  0  0  0  0  0  0  0  0  0  0
    0.6941   -2.5465   -5.6640 C   0  0  0  0  0  0  0  0  0  0  0  0
   -0.2164   -2.2325   -4.6570 C   0  0  0  0  0  0  0  0  0  0  0  0
    0.2168   -1.7561   -3.4067 C   0  0  0  0  0  0  0  0  0  0  0  0
   -0.7197   -1.4433   -2.4124 C   0  0  0  0  0  0  0  0  0  0  0  0
   -0.3361   -0.9603   -1.1532 C   0  0  0  0  0  0  0  0  0  0  0  0
   -1.3125   -0.6523   -0.1860 C   0  0  0  0  0  0  0  0  0  0  0  0
   -0.9953   -0.1593    1.1047 C   0  0  0  0  0  0  0  0  0  0  0  0
   -1.9619    0.1627    2.1111 C   0  0  0  0  0  0  0  0  0  0  0  0
   -3.3957   -0.0092    1.8196 C   0  0  0  0  0  0  0  0  0  0  0  0
   -4.2779    0.9017    1.2796 C   0  0  0  0  0  0  0  0  0  0  0  0
   -5.6070    0.3800    1.1398 C   0  0  0  0  0  0  0  0  0  0  0  0
   -6.7849    0.9834    0.6377 C   0  0  0  0  0  0  0  0  0  0  0  0
   -8.0011    0.2780    0.5908 C   0  0  0  0  0  0  0  0  0  0  0  0
   -8.0522   -1.0483    1.0505 C   0  0  0  0  0  0  0  0  0  0  0  0
   -9.2719   -1.7435    0.9998 C   0  0  0  0  0  0  0  0  0  0  0  0
  -10.4413   -1.1459    0.5007 C   0  0  0  0  0  0  0  0  0  0  0  0
  -11.6533   -1.8551    0.4568 C   0  0  0  0  0  0  0  0  0  0  0  0
  -12.8091   -1.2287   -0.0492 C   0  0  0  0  0  0  0  0  0  0  0  0
  -14.3843   -1.9147   -0.1902 S   0  0  0  0  0  0  0  0  0  0  0  0
  -15.0284   -0.4842   -0.8575 C   0  0  0  0  0  0  0  0  0  0  0  0
  -14.0770    0.5016   -0.9758 C   0  0  0  0  0  0  0  0  0  0  0  0
  -12.7834    0.0870   -0.5116 C   0  0  0  0  0  0  0  0  0  0  0  0
  -11.5546    0.7883   -0.4607 C   0  0  0  0  0  0  0  0  0  0  0  0
  -10.3893    0.1805    0.0410 C   0  0  0  0  0  0  0  0  0  0  0  0
   -9.1700    0.8763    0.0917 C   0  0  0  0  0  0  0  0  0  0  0  0
   -6.8916   -1.6603    1.5527 C   0  0  0  0  0  0  0  0  0  0  0  0
   -5.6834   -0.9374    1.5901 C   0  0  0  0  0  0  0  0  0  0  0  0
   -4.1584   -1.4978    2.1625 S   0  0  0  0  0  0  0  0  0  0  0  0
   -1.5612    0.6689    3.3878 C   0  0  0  0  0  0  0  0  0  0  0  0
   -2.4600    1.0211    4.4284 C   0  0  0  0  0  0  0  0  0  0  0  0
   -2.0144    1.5089    5.6590 C   0  0  0  0  0  0  0  0  0  0  0  0
   -0.6553    1.6605    5.8885 C   0  0  0  0  0  0  0  0  0  0  0  0
    0.2535    1.3254    4.8871 C   0  0  0  0  0  0  0  0  0  0  0  0
   -0.1827    0.8342    3.6438 C   0  0  0  0  0  0  0  0  0  0  0  0
    0.7527    0.5080    2.6534 C   0  0  0  0  0  0  0  0  0  0  0  0
    0.3672    0.0201    1.3971 C   0  0  0  0  0  0  0  0  0  0  0  0
    1.3433   -0.2881    0.4304 C   0  0  0  0  0  0  0  0  0  0  0  0
    1.0264   -0.7827   -0.8591 C   0  0  0  0  0  0  0  0  0  0  0  0
    4.1973    0.2134   -1.7819 C   0  0  0  0  0  0  0  0  0  0  0  0
    5.5655    0.0339   -1.3900 C   0  0  0  0  0  0  0  0  0  0  0  0
    6.6614    0.9283   -1.4385 C   0  0  0  0  0  0  0  0  0  0  0  0
   15.9807    1.8767    0.4698 H   0  0  0  0  0  0  0  0  0  0  0  0
   14.0145    3.3226   -0.5033 H   0  0  0  0  0  0  0  0  0  0  0  0
   11.2463    2.9504   -1.0395 H   0  0  0  0  0  0  0  0  0  0  0  0
    8.8731    2.4328   -1.4305 H   0  0  0  0  0  0  0  0  0  0  0  0
    9.5667   -2.1473    0.3226 H   0  0  0  0  0  0  0  0  0  0  0  0
   11.9430   -1.6498    0.7207 H   0  0  0  0  0  0  0  0  0  0  0  0
    7.1933   -2.6684   -0.0641 H   0  0  0  0  0  0  0  0  0  0  0  0
    3.5689   -1.8083   -4.0553 H   0  0  0  0  0  0  0  0  0  0  0  0
    2.7727   -2.6301   -6.2105 H   0  0  0  0  0  0  0  0  0  0  0  0
    0.3411   -2.9142   -6.6237 H   0  0  0  0  0  0  0  0  0  0  0  0
   -1.2781   -2.3639   -4.8572 H   0  0  0  0  0  0  0  0  0  0  0  0
   -1.7801   -1.5777   -2.6257 H   0  0  0  0  0  0  0  0  0  0  0  0
   -2.3580   -0.8051   -0.4517 H   0  0  0  0  0  0  0  0  0  0  0  0
   -3.9868    1.9059    0.9948 H   0  0  0  0  0  0  0  0  0  0  0  0
   -6.7371    2.0114    0.2854 H   0  0  0  0  0  0  0  0  0  0  0  0
   -9.3123   -2.7719    1.3563 H   0  0  0  0  0  0  0  0  0  0  0  0
  -11.7102   -2.8820    0.8089 H   0  0  0  0  0  0  0  0  0  0  0  0
  -16.0732   -0.4327   -1.1315 H   0  0  0  0  0  0  0  0  0  0  0  0
  -14.2923    1.4837   -1.3784 H   0  0  0  0  0  0  0  0  0  0  0  0
  -11.5239    1.8149   -0.8186 H   0  0  0  0  0  0  0  0  0  0  0  0
   -9.1296    1.9046   -0.2645 H   0  0  0  0  0  0  0  0  0  0  0  0
   -6.9153   -2.6854    1.9138 H   0  0  0  0  0  0  0  0  0  0  0  0
   -3.5344    0.9147    4.2910 H   0  0  0  0  0  0  0  0  0  0  0  0
   -2.7324    1.7655    6.4337 H   0  0  0  0  0  0  0  0  0  0  0  0
   -0.3008    2.0369    6.8441 H   0  0  0  0  0  0  0  0  0  0  0  0
    1.3162    1.4504    5.0862 H   0  0  0  0  0  0  0  0  0  0  0  0
    1.8135    0.6394    2.8663 H   0  0  0  0  0  0  0  0  0  0  0  0
    2.3889   -0.1372    0.6970 H   0  0  0  0  0  0  0  0  0  0  0  0
    3.8005    1.1315   -2.1987 H   0  0  0  0  0  0  0  0  0  0  0  0
    6.5010    1.9318   -1.8262 H   0  0  0  0  0  0  0  0  0  0  0  0
  1  2  4  0
  2  3  4  0
  3  4  4  0
  4  5  4  0
  5  6  4  0
  6  7  4  0
  7  8  4  0
  8  9  4  0
  9 10  4  0
 10 11  4  0
 11 12  4  0
 12 13  4  0
  8 14  4  0
 14 15  4  0
 15 16  4  0
 16 17  4  0
 17 18  1  0
 18 19  4  0
 19 20  4  0
 20 21  4  0
 21 22  4  0
 22 23  4  0
 23 24  4  0
 24 25  4  0
 25 26  4  0
 26 27  4  0
 27 28  4  0
 28 29  4  0
 29 30  1  0
 30 31  4  0
 31 32  4  0
 32 33  4  0
 33 34  4  0
 34 35  4  0
 35 36  4  0
 36 37  4  0
 37 38  4  0
 38 39  4  0
 39 40  4  0
 40 41  4  0
 41 42  4  0
 42 43  4  0
 43 44  4  0
 44 45  4  0
 45 46  4  0
 35 47  4  0
 47 48  4  0
 48 49  4  0
 29 50  4  0
 50 51  4  0
 51 52  4  0
 52 53  4  0
 53 54  4  0
 54 55  4  0
 55 56  4  0
 56 57  4  0
 57 58  4  0
 58 59  4  0
 17 60  4  0
 60 61  4  0
 61 62  4  0
 13  1  4  0
 61 15  4  0
 12  3  4  0
 59 18  4  0
 10  5  4  0
 24 19  4  0
 59 26  4  0
 62  7  4  0
 57 28  4  0
 49 30  4  0
 55 50  4  0
 48 32  4  0
 46 34  4  0
 45 37  4  0
 43 39  4  0
  1 63  1  0
  2 64  1  0
  4 65  1  0
  6 66  1  0
  9 67  1  0
 11 68  1  0
 14 69  1  0
 20 70  1  0
 21 71  1  0
 22 72  1  0
 23 73  1  0
 25 74  1  0
 27 75  1  0
 31 76  1  0
 33 77  1  0
 36 78  1  0
 38 79  1  0
 41 80  1  0
 42 81  1  0
 44 82  1  0
 46 83  1  0
 47 84  1  0
 51 85  1  0
 52 86  1  0
 53 87  1  0
 54 88  1  0
 56 89  1  0
 58 90  1  0
 60 91  1  0
 62 92  1  0
M  END
