
     RDKit          3D

 92106  0  0  0  0  0  0  0  0999 V2000
  -12.1249   -0.8890    3.5418 C   0  0  0  0  0  0  0  0  0  0  0  0
  -10.8661   -0.3826    3.7649 C   0  0  0  0  0  0  0  0  0  0  0  0
  -10.0473   -0.3838    2.5859 C   0  0  0  0  0  0  0  0  0  0  0  0
   -8.7125    0.0456    2.3910 C   0  0  0  0  0  0  0  0  0  0  0  0
   -8.0942   -0.0479    1.1310 C   0  0  0  0  0  0  0  0  0  0  0  0
   -6.7698    0.3785    0.9376 C   0  0  0  0  0  0  0  0  0  0  0  0
   -6.1442    0.2888   -0.3168 C   0  0  0  0  0  0  0  0  0  0  0  0
   -6.8586   -0.2395   -1.4039 C   0  0  0  0  0  0  0  0  0  0  0  0
   -8.1832   -0.6652   -1.2101 C   0  0  0  0  0  0  0  0  0  0  0  0
   -8.8102   -0.5760    0.0439 C   0  0  0  0  0  0  0  0  0  0  0  0
  -10.1357   -1.0061    0.2211 C   0  0  0  0  0  0  0  0  0  0  0  0
  -10.7370   -0.9042    1.4909 C   0  0  0  0  0  0  0  0  0  0  0  0
  -12.3400   -1.3707    1.9206 S   0  0  0  0  0  0  0  0  0  0  0  0
   -6.2453   -0.3351   -2.6639 C   0  0  0  0  0  0  0  0  0  0  0  0
   -4.9155    0.1005   -2.8279 C   0  0  0  0  0  0  0  0  0  0  0  0
   -3.9900    0.0680   -4.2807 S   0  0  0  0  0  0  0  0  0  0  0  0
   -2.6274    0.7501   -3.5183 C   0  0  0  0  0  0  0  0  0  0  0  0
   -2.8536    1.0039   -2.1818 C   0  0  0  0  0  0  0  0  0  0  0  0
   -1.8010    1.5922   -1.3468 C   0  0  0  0  0  0  0  0  0  0  0  0
   -1.7125    3.0139   -1.2361 C   0  0  0  0  0  0  0  0  0  0  0  0
   -2.5883    3.9257   -1.8804 C   0  0  0  0  0  0  0  0  0  0  0  0
   -2.4517    5.3082   -1.7372 C   0  0  0  0  0  0  0  0  0  0  0  0
   -1.4353    5.8222   -0.9456 C   0  0  0  0  0  0  0  0  0  0  0  0
   -0.5603    4.9527   -0.2977 C   0  0  0  0  0  0  0  0  0  0  0  0
   -0.6884    3.5590   -0.4320 C   0  0  0  0  0  0  0  0  0  0  0  0
    0.2009    2.7058    0.2349 C   0  0  0  0  0  0  0  0  0  0  0  0
    0.1086    1.3100    0.1372 C   0  0  0  0  0  0  0  0  0  0  0  0
    1.0195    0.4925    0.8311 C   0  0  0  0  0  0  0  0  0  0  0  0
    0.9848   -0.9231    0.7752 C   0  0  0  0  0  0  0  0  0  0  0  0
    1.8979   -1.7839    1.4608 C   0  0  0  0  0  0  0  0  0  0  0  0
    2.9606   -1.1899    2.2788 C   0  0  0  0  0  0  0  0  0  0  0  0
    2.7774   -0.9826    3.6295 C   0  0  0  0  0  0  0  0  0  0  0  0
    4.1429   -0.2694    4.3586 S   0  0  0  0  0  0  0  0  0  0  0  0
    5.0067   -0.2146    2.8687 C   0  0  0  0  0  0  0  0  0  0  0  0
    6.3057    0.2903    2.6616 C   0  0  0  0  0  0  0  0  0  0  0  0
    6.8651    0.2650    1.3730 C   0  0  0  0  0  0  0  0  0  0  0  0
    6.1287   -0.2654    0.3017 C   0  0  0  0  0  0  0  0  0  0  0  0
    6.6970   -0.2837   -0.9820 C   0  0  0  0  0  0  0  0  0  0  0  0
    7.9867    0.2171   -1.2212 C   0  0  0  0  0  0  0  0  0  0  0  0
    8.5463    0.1953   -2.5113 C   0  0  0  0  0  0  0  0  0  0  0  0
    9.8461    0.7005   -2.7540 C   0  0  0  0  0  0  0  0  0  0  0  0
   10.6054    0.7795   -3.9695 C   0  0  0  0  0  0  0  0  0  0  0  0
   11.8461    1.3444   -3.7888 C   0  0  0  0  0  0  0  0  0  0  0  0
   12.1149    1.7857   -2.1643 S   0  0  0  0  0  0  0  0  0  0  0  0
   10.5608    1.2221   -1.6756 C   0  0  0  0  0  0  0  0  0  0  0  0
   10.0176    1.2524   -0.3760 C   0  0  0  0  0  0  0  0  0  0  0  0
    8.7260    0.7479   -0.1512 C   0  0  0  0  0  0  0  0  0  0  0  0
    8.1559    0.7649    1.1329 C   0  0  0  0  0  0  0  0  0  0  0  0
    4.8363   -0.7674    0.5290 C   0  0  0  0  0  0  0  0  0  0  0  0
    4.2544   -0.7467    1.8215 C   0  0  0  0  0  0  0  0  0  0  0  0
    1.8168   -3.2052    1.3462 C   0  0  0  0  0  0  0  0  0  0  0  0
    2.7034   -4.1134    1.9809 C   0  0  0  0  0  0  0  0  0  0  0  0
    2.5758   -5.4960    1.8326 C   0  0  0  0  0  0  0  0  0  0  0  0
    1.5586   -6.0131    1.0442 C   0  0  0  0  0  0  0  0  0  0  0  0
    0.6739   -5.1470    0.4047 C   0  0  0  0  0  0  0  0  0  0  0  0
    0.7922   -3.7529    0.5447 C   0  0  0  0  0  0  0  0  0  0  0  0
   -0.1047   -2.9019   -0.1161 C   0  0  0  0  0  0  0  0  0  0  0  0
   -0.0194   -1.5054   -0.0156 C   0  0  0  0  0  0  0  0  0  0  0  0
   -0.9332   -0.6876   -0.7072 C   0  0  0  0  0  0  0  0  0  0  0  0
   -0.8953    0.7286   -0.6549 C   0  0  0  0  0  0  0  0  0  0  0  0
   -4.1829    0.6300   -1.7652 C   0  0  0  0  0  0  0  0  0  0  0  0
   -4.8184    0.7190   -0.5007 C   0  0  0  0  0  0  0  0  0  0  0  0
  -12.9303   -0.9995    4.2548 H   0  0  0  0  0  0  0  0  0  0  0  0
  -10.5376   -0.0235    4.7324 H   0  0  0  0  0  0  0  0  0  0  0  0
   -8.1652    0.4532    3.2380 H   0  0  0  0  0  0  0  0  0  0  0  0
   -6.2144    0.7885    1.7799 H   0  0  0  0  0  0  0  0  0  0  0  0
   -8.7386   -1.0739   -2.0531 H   0  0  0  0  0  0  0  0  0  0  0  0
  -10.7030   -1.4166   -0.6102 H   0  0  0  0  0  0  0  0  0  0  0  0
   -6.7864   -0.7410   -3.5148 H   0  0  0  0  0  0  0  0  0  0  0  0
   -1.7246    0.9338   -4.0859 H   0  0  0  0  0  0  0  0  0  0  0  0
   -3.4004    3.5630   -2.5080 H   0  0  0  0  0  0  0  0  0  0  0  0
   -3.1417    5.9773   -2.2450 H   0  0  0  0  0  0  0  0  0  0  0  0
   -1.3229    6.8969   -0.8297 H   0  0  0  0  0  0  0  0  0  0  0  0
    0.2302    5.3743    0.3205 H   0  0  0  0  0  0  0  0  0  0  0  0
    0.9874    3.1413    0.8514 H   0  0  0  0  0  0  0  0  0  0  0  0
    1.7846    0.9802    1.4345 H   0  0  0  0  0  0  0  0  0  0  0  0
    1.9048   -1.2165    4.2254 H   0  0  0  0  0  0  0  0  0  0  0  0
    6.8636    0.6982    3.5006 H   0  0  0  0  0  0  0  0  0  0  0  0
    6.1228   -0.6945   -1.8112 H   0  0  0  0  0  0  0  0  0  0  0  0
    7.9786   -0.2146   -3.3438 H   0  0  0  0  0  0  0  0  0  0  0  0
   10.2496    0.4339   -4.9323 H   0  0  0  0  0  0  0  0  0  0  0  0
   12.6091    1.5193   -4.5348 H   0  0  0  0  0  0  0  0  0  0  0  0
   10.6031    1.6660    0.4411 H   0  0  0  0  0  0  0  0  0  0  0  0
    8.7287    1.1766    1.9627 H   0  0  0  0  0  0  0  0  0  0  0  0
    4.2598   -1.1799   -0.2969 H   0  0  0  0  0  0  0  0  0  0  0  0
    3.5172   -3.7476    2.6045 H   0  0  0  0  0  0  0  0  0  0  0  0
    3.2730   -6.1626    2.3335 H   0  0  0  0  0  0  0  0  0  0  0  0
    1.4529   -7.0878    0.9236 H   0  0  0  0  0  0  0  0  0  0  0  0
   -0.1156   -5.5729   -0.2116 H   0  0  0  0  0  0  0  0  0  0  0  0
   -0.8899   -3.3398   -0.7323 H   0  0  0  0  0  0  0  0  0  0  0  0
   -1.7005   -1.1746   -1.3083 H   0  0  0  0  0  0  0  0  0  0  0  0
   -4.2600    1.1323    0.3370 H   0  0  0  0  0  0  0  0  0  0  0  0
  1  2  4  0
  2  3  4  0
  3  4  4  0
  4  5  4  0
  5  6  4  0
  6  7  4  0
  7  8  4  0
  8  9  4  0
  9 10  4  0
 10 11  4  0
 11 12  4  0
 12 13  4  0
  8 14  4  0
 14 15  4  0
 15 16  4  0
 16 17  4  0
 17 18  4  0
 18 19  1  0
 19 20  4  0
 20 21  4  0
 21 22  4  0
 22 23  4  0
 23 24  4  0
 24 25  4  0
 25 26  4  0
 26 27  4  0
 27 28  4  0
 28 29  4  0
 29 30  4  0
 30 31  1  0
 31 32  4  0
 32 33  4  0
 33 34  4  0
 34 35  4  0
 35 36  4  0
 36 37  4  0
 37 38  4  0
 38 39  4  0
 39 40  4  0
 40 41  4  0
 41 42  4  0
 42 43  4  0
 43 44  4  0
 44 45  4  0
 45 46  4  0
 46 47  4  0
 47 48  4  0
 37 49  4  0
 49 50  4  0
 30 51  4  0
 51 52  4  0
 52 53  4  0
 53 54  4  0
 54 55  4  0
 55 56  4  0
 56 57  4  0
 57 58  4  0
 58 59  4  0
 59 60  4  0
 18 61  4  0
 61 62  4  0
 13  1  4  0
 61 15  4  0
 12  3  4  0
 60 19  4  0
 10  5  4  0
 25 20  4  0
 60 27  4  0
 62  7  4  0
 58 29  4  0
 50 31  4  0
 56 51  4  0
 50 34  4  0
 48 36  4  0
 47 39  4  0
 45 41  4  0
  1 63  1  0
  2 64  1  0
  4 65  1  0
  6 66  1  0
  9 67  1  0
 11 68  1  0
 14 69  1  0
 17 70  1  0
 21 71  1  0
 22 72  1  0
 23 73  1  0
 24 74  1  0
 26 75  1  0
 28 76  1  0
 32 77  1  0
 35 78  1  0
 38 79  1  0
 40 80  1  0
 42 81  1  0
 43 82  1  0
 46 83  1  0
 48 84  1  0
 49 85  1  0
 52 86  1  0
 53 87  1  0
 54 88  1  0
 55 89  1  0
 57 90  1  0
 59 91  1  0
 62 92  1  0
M  END
