
     RDKit          3D

 92106  0  0  0  0  0  0  0  0999 V2000
   -8.5235   -1.4318   -6.1119 C   0  0  0  0  0  0  0  0  0  0  0  0
   -7.3107   -0.8859   -5.7626 C   0  0  0  0  0  0  0  0  0  0  0  0
   -7.1837   -0.6673   -4.3495 C   0  0  0  0  0  0  0  0  0  0  0  0
   -6.1137   -0.1326   -3.5924 C   0  0  0  0  0  0  0  0  0  0  0  0
   -6.2032   -0.0053   -2.1943 C   0  0  0  0  0  0  0  0  0  0  0  0
   -7.3732   -0.4148   -1.5333 C   0  0  0  0  0  0  0  0  0  0  0  0
   -7.4527   -0.2821   -0.1370 C   0  0  0  0  0  0  0  0  0  0  0  0
   -6.3915    0.2507    0.6142 C   0  0  0  0  0  0  0  0  0  0  0  0
   -6.4856    0.3797    2.0098 C   0  0  0  0  0  0  0  0  0  0  0  0
   -5.4053    0.9190    2.7361 C   0  0  0  0  0  0  0  0  0  0  0  0
   -5.3235    1.1591    4.4404 S   0  0  0  0  0  0  0  0  0  0  0  0
   -3.7506    1.8083    4.3506 C   0  0  0  0  0  0  0  0  0  0  0  0
   -3.2795    1.8487    3.0552 C   0  0  0  0  0  0  0  0  0  0  0  0
   -1.9415    2.3754    2.7651 C   0  0  0  0  0  0  0  0  0  0  0  0
   -1.7901    3.7630    2.4624 C   0  0  0  0  0  0  0  0  0  0  0  0
   -2.8588    4.6959    2.4171 C   0  0  0  0  0  0  0  0  0  0  0  0
   -2.6509    6.0436    2.1162 C   0  0  0  0  0  0  0  0  0  0  0  0
   -1.3683    6.5000    1.8509 C   0  0  0  0  0  0  0  0  0  0  0  0
   -0.2982    5.6081    1.8858 C   0  0  0  0  0  0  0  0  0  0  0  0
   -0.4938    4.2487    2.1868 C   0  0  0  0  0  0  0  0  0  0  0  0
    0.5990    3.3708    2.2134 C   0  0  0  0  0  0  0  0  0  0  0  0
    0.4523    2.0064    2.5039 C   0  0  0  0  0  0  0  0  0  0  0  0
    1.5773    1.1599    2.5185 C   0  0  0  0  0  0  0  0  0  0  0  0
    1.4971   -0.2261    2.8049 C   0  0  0  0  0  0  0  0  0  0  0  0
    2.6167   -1.1153    2.8392 C   0  0  0  0  0  0  0  0  0  0  0  0
    3.9602   -0.5882    2.5745 C   0  0  0  0  0  0  0  0  0  0  0  0
    4.7155   -0.0542    3.5975 C   0  0  0  0  0  0  0  0  0  0  0  0
    6.2378    0.4868    3.0563 S   0  0  0  0  0  0  0  0  0  0  0  0
    5.9183    0.0047    1.4334 C   0  0  0  0  0  0  0  0  0  0  0  0
    6.7832    0.1342    0.3285 C   0  0  0  0  0  0  0  0  0  0  0  0
    6.3698   -0.3157   -0.9363 C   0  0  0  0  0  0  0  0  0  0  0  0
    7.2124   -0.2041   -2.0554 C   0  0  0  0  0  0  0  0  0  0  0  0
    6.8133   -0.6511   -3.3260 C   0  0  0  0  0  0  0  0  0  0  0  0
    5.5399   -1.2238   -3.4810 C   0  0  0  0  0  0  0  0  0  0  0  0
    4.6975   -1.3356   -2.3624 C   0  0  0  0  0  0  0  0  0  0  0  0
    5.0974   -0.8883   -1.0924 C   0  0  0  0  0  0  0  0  0  0  0  0
    4.2475   -1.0065    0.0220 C   0  0  0  0  0  0  0  0  0  0  0  0
    4.6491   -0.5610    1.3070 C   0  0  0  0  0  0  0  0  0  0  0  0
    5.1303   -1.6750   -4.7489 C   0  0  0  0  0  0  0  0  0  0  0  0
    5.9793   -1.5629   -5.8761 C   0  0  0  0  0  0  0  0  0  0  0  0
    5.7729   -1.9499   -7.2430 C   0  0  0  0  0  0  0  0  0  0  0  0
    6.8528   -1.6695   -8.0468 C   0  0  0  0  0  0  0  0  0  0  0  0
    8.1237   -0.9405   -7.1750 S   0  0  0  0  0  0  0  0  0  0  0  0
    7.2387   -0.9909   -5.6965 C   0  0  0  0  0  0  0  0  0  0  0  0
    7.6676   -0.5332   -4.4351 C   0  0  0  0  0  0  0  0  0  0  0  0
    2.4582   -2.5076    3.1192 C   0  0  0  0  0  0  0  0  0  0  0  0
    3.5228   -3.4451    3.1598 C   0  0  0  0  0  0  0  0  0  0  0  0
    3.3076   -4.7964    3.4392 C   0  0  0  0  0  0  0  0  0  0  0  0
    2.0215   -5.2523    3.6875 C   0  0  0  0  0  0  0  0  0  0  0  0
    0.9546   -4.3567    3.6557 C   0  0  0  0  0  0  0  0  0  0  0  0
    1.1580   -2.9943    3.3748 C   0  0  0  0  0  0  0  0  0  0  0  0
    0.0679   -2.1142    3.3488 C   0  0  0  0  0  0  0  0  0  0  0  0
    0.2199   -0.7484    3.0700 C   0  0  0  0  0  0  0  0  0  0  0  0
   -0.9045    0.0977    3.0557 C   0  0  0  0  0  0  0  0  0  0  0  0
   -0.8227    1.4852    2.7807 C   0  0  0  0  0  0  0  0  0  0  0  0
   -4.2327    1.3326    2.1035 C   0  0  0  0  0  0  0  0  0  0  0  0
   -4.1547    1.1936    0.6946 C   0  0  0  0  0  0  0  0  0  0  0  0
   -5.2224    0.6589   -0.0478 C   0  0  0  0  0  0  0  0  0  0  0  0
   -5.1416    0.5260   -1.4436 C   0  0  0  0  0  0  0  0  0  0  0  0
   -8.4436   -0.9478   -2.2705 C   0  0  0  0  0  0  0  0  0  0  0  0
   -8.3345   -1.0669   -3.6699 C   0  0  0  0  0  0  0  0  0  0  0  0
   -9.5218   -1.6885   -4.7542 S   0  0  0  0  0  0  0  0  0  0  0  0
   -8.8716   -1.6928   -7.1018 H   0  0  0  0  0  0  0  0  0  0  0  0
   -6.5401   -0.6500   -6.4861 H   0  0  0  0  0  0  0  0  0  0  0  0
   -5.2118    0.1832   -4.1121 H   0  0  0  0  0  0  0  0  0  0  0  0
   -8.3600   -0.5989    0.3755 H   0  0  0  0  0  0  0  0  0  0  0  0
   -7.3840    0.0684    2.5364 H   0  0  0  0  0  0  0  0  0  0  0  0
   -3.2442    2.1292    5.2515 H   0  0  0  0  0  0  0  0  0  0  0  0
   -3.8804    4.3775    2.6168 H   0  0  0  0  0  0  0  0  0  0  0  0
   -3.4931    6.7304    2.0903 H   0  0  0  0  0  0  0  0  0  0  0  0
   -1.1983    7.5472    1.6160 H   0  0  0  0  0  0  0  0  0  0  0  0
    0.7001    5.9859    1.6733 H   0  0  0  0  0  0  0  0  0  0  0  0
    1.5940    3.7611    1.9993 H   0  0  0  0  0  0  0  0  0  0  0  0
    2.5497    1.5989    2.2965 H   0  0  0  0  0  0  0  0  0  0  0  0
    4.4444    0.0460    4.6403 H   0  0  0  0  0  0  0  0  0  0  0  0
    7.7661    0.5784    0.4648 H   0  0  0  0  0  0  0  0  0  0  0  0
    8.2001    0.2385   -1.9347 H   0  0  0  0  0  0  0  0  0  0  0  0
    3.7107   -1.7808   -2.4814 H   0  0  0  0  0  0  0  0  0  0  0  0
    3.2607   -1.4514   -0.0915 H   0  0  0  0  0  0  0  0  0  0  0  0
    4.1459   -2.1193   -4.8774 H   0  0  0  0  0  0  0  0  0  0  0  0
    4.8669   -2.4142   -7.6124 H   0  0  0  0  0  0  0  0  0  0  0  0
    6.9565   -1.8583   -9.1066 H   0  0  0  0  0  0  0  0  0  0  0  0
    8.6561   -0.0932   -4.3314 H   0  0  0  0  0  0  0  0  0  0  0  0
    4.5467   -3.1282    2.9703 H   0  0  0  0  0  0  0  0  0  0  0  0
    4.1470   -5.4865    3.4612 H   0  0  0  0  0  0  0  0  0  0  0  0
    1.8460   -6.3023    3.9058 H   0  0  0  0  0  0  0  0  0  0  0  0
   -0.0468   -4.7343    3.8534 H   0  0  0  0  0  0  0  0  0  0  0  0
   -0.9298   -2.5045    3.5503 H   0  0  0  0  0  0  0  0  0  0  0  0
   -1.8783   -0.3440    3.2659 H   0  0  0  0  0  0  0  0  0  0  0  0
   -3.2453    1.5117    0.1881 H   0  0  0  0  0  0  0  0  0  0  0  0
   -4.2346    0.8439   -1.9558 H   0  0  0  0  0  0  0  0  0  0  0  0
   -9.3558   -1.2687   -1.7741 H   0  0  0  0  0  0  0  0  0  0  0  0
  1  2  4  0
  2  3  4  0
  3  4  4  0
  4  5  4  0
  5  6  4  0
  6  7  4  0
  7  8  4  0
  8  9  4  0
  9 10  4  0
 10 11  4  0
 11 12  4  0
 12 13  4  0
 13 14  1  0
 14 15  4  0
 15 16  4  0
 16 17  4  0
 17 18  4  0
 18 19  4  0
 19 20  4  0
 20 21  4  0
 21 22  4  0
 22 23  4  0
 23 24  4  0
 24 25  4  0
 25 26  1  0
 26 27  4  0
 27 28  4  0
 28 29  4  0
 29 30  4  0
 30 31  4  0
 31 32  4  0
 32 33  4  0
 33 34  4  0
 34 35  4  0
 35 36  4  0
 36 37  4  0
 37 38  4  0
 34 39  4  0
 39 40  4  0
 40 41  4  0
 41 42  4  0
 42 43  4  0
 43 44  4  0
 44 45  4  0
 25 46  4  0
 46 47  4  0
 47 48  4  0
 48 49  4  0
 49 50  4  0
 50 51  4  0
 51 52  4  0
 52 53  4  0
 53 54  4  0
 54 55  4  0
 13 56  4  0
 56 57  4  0
 57 58  4  0
 58 59  4  0
  6 60  4  0
 60 61  4  0
 61 62  4  0
 62  1  4  0
 61  3  4  0
 59  5  4  0
 58  8  4  0
 56 10  4  0
 55 14  4  0
 20 15  4  0
 55 22  4  0
 53 24  4  0
 38 26  4  0
 44 40  4  0
 51 46  4  0
 38 29  4  0
 36 31  4  0
 45 33  4  0
  1 63  1  0
  2 64  1  0
  4 65  1  0
  7 66  1  0
  9 67  1  0
 12 68  1  0
 16 69  1  0
 17 70  1  0
 18 71  1  0
 19 72  1  0
 21 73  1  0
 23 74  1  0
 27 75  1  0
 30 76  1  0
 32 77  1  0
 35 78  1  0
 37 79  1  0
 39 80  1  0
 41 81  1  0
 42 82  1  0
 45 83  1  0
 47 84  1  0
 48 85  1  0
 49 86  1  0
 50 87  1  0
 52 88  1  0
 54 89  1  0
 57 90  1  0
 59 91  1  0
 60 92  1  0
M  END
