
     RDKit          3D

 92106  0  0  0  0  0  0  0  0999 V2000
    4.1909   -6.6179    1.4083 C   0  0  0  0  0  0  0  0  0  0  0  0
    5.2313   -5.7503    1.6454 C   0  0  0  0  0  0  0  0  0  0  0  0
    4.9930   -4.4383    1.1146 C   0  0  0  0  0  0  0  0  0  0  0  0
    5.7915   -3.2729    1.1398 C   0  0  0  0  0  0  0  0  0  0  0  0
    5.3563   -2.0705    0.5507 C   0  0  0  0  0  0  0  0  0  0  0  0
    6.1789   -0.9386    0.6014 C   0  0  0  0  0  0  0  0  0  0  0  0
    5.7986    0.2851    0.0374 C   0  0  0  0  0  0  0  0  0  0  0  0
    4.5537    0.3993   -0.6070 C   0  0  0  0  0  0  0  0  0  0  0  0
    4.2091    1.6576   -1.1609 C   0  0  0  0  0  0  0  0  0  0  0  0
    5.0891    2.7541   -1.0697 C   0  0  0  0  0  0  0  0  0  0  0  0
    4.8370    4.3446   -1.6828 S   0  0  0  0  0  0  0  0  0  0  0  0
    6.3515    4.8826   -1.1136 C   0  0  0  0  0  0  0  0  0  0  0  0
    7.0419    3.8836   -0.4681 C   0  0  0  0  0  0  0  0  0  0  0  0
    6.3226    2.6425   -0.4346 C   0  0  0  0  0  0  0  0  0  0  0  0
    6.6677    1.3897    0.1204 C   0  0  0  0  0  0  0  0  0  0  0  0
    3.7018   -0.7515   -0.6734 C   0  0  0  0  0  0  0  0  0  0  0  0
    2.3798   -0.6529   -1.3669 C   0  0  0  0  0  0  0  0  0  0  0  0
    2.2951   -0.9150   -2.7730 C   0  0  0  0  0  0  0  0  0  0  0  0
    3.4047   -1.2728   -3.5792 C   0  0  0  0  0  0  0  0  0  0  0  0
    3.2778   -1.5149   -4.9488 C   0  0  0  0  0  0  0  0  0  0  0  0
    2.0356   -1.4069   -5.5556 C   0  0  0  0  0  0  0  0  0  0  0  0
    0.9245   -1.0589   -4.7908 C   0  0  0  0  0  0  0  0  0  0  0  0
    1.0398   -0.8140   -3.4110 C   0  0  0  0  0  0  0  0  0  0  0  0
   -0.0931   -0.4691   -2.6641 C   0  0  0  0  0  0  0  0  0  0  0  0
   -0.0262   -0.2137   -1.2883 C   0  0  0  0  0  0  0  0  0  0  0  0
   -1.1925    0.1226   -0.5756 C   0  0  0  0  0  0  0  0  0  0  0  0
   -1.1962    0.3937    0.8136 C   0  0  0  0  0  0  0  0  0  0  0  0
   -2.3724    0.7246    1.5639 C   0  0  0  0  0  0  0  0  0  0  0  0
   -3.7020    0.7709    0.8797 C   0  0  0  0  0  0  0  0  0  0  0  0
   -4.1732    2.0026    0.3185 C   0  0  0  0  0  0  0  0  0  0  0  0
   -3.4381    3.2136    0.3641 C   0  0  0  0  0  0  0  0  0  0  0  0
   -3.9524    4.3949   -0.2073 C   0  0  0  0  0  0  0  0  0  0  0  0
   -3.2015    5.9455   -0.2478 S   0  0  0  0  0  0  0  0  0  0  0  0
   -4.5134    6.6407   -1.0864 C   0  0  0  0  0  0  0  0  0  0  0  0
   -5.5076    5.7236   -1.3349 C   0  0  0  0  0  0  0  0  0  0  0  0
   -5.1962    4.4160   -0.8319 C   0  0  0  0  0  0  0  0  0  0  0  0
   -5.9316    3.2103   -0.8770 C   0  0  0  0  0  0  0  0  0  0  0  0
   -5.4298    2.0219   -0.3133 C   0  0  0  0  0  0  0  0  0  0  0  0
   -6.1907    0.8486   -0.3838 C   0  0  0  0  0  0  0  0  0  0  0  0
   -5.7431   -0.3637    0.1550 C   0  0  0  0  0  0  0  0  0  0  0  0
   -4.4922   -0.4225    0.7947 C   0  0  0  0  0  0  0  0  0  0  0  0
   -4.0788   -1.6709    1.3238 C   0  0  0  0  0  0  0  0  0  0  0  0
   -4.8959   -2.8127    1.2094 C   0  0  0  0  0  0  0  0  0  0  0  0
   -4.5530   -4.3996    1.7866 S   0  0  0  0  0  0  0  0  0  0  0  0
   -6.0355   -5.0095    1.2057 C   0  0  0  0  0  0  0  0  0  0  0  0
   -6.7825   -4.0367    0.5838 C   0  0  0  0  0  0  0  0  0  0  0  0
   -6.1346   -2.7564    0.5776 C   0  0  0  0  0  0  0  0  0  0  0  0
   -6.5502   -1.5129    0.0506 C   0  0  0  0  0  0  0  0  0  0  0  0
   -2.2875    0.9886    2.9695 C   0  0  0  0  0  0  0  0  0  0  0  0
   -3.4014    1.3220    3.7805 C   0  0  0  0  0  0  0  0  0  0  0  0
   -3.2736    1.5682    5.1493 C   0  0  0  0  0  0  0  0  0  0  0  0
   -2.0265    1.4876    5.7506 C   0  0  0  0  0  0  0  0  0  0  0  0
   -0.9115    1.1618    4.9815 C   0  0  0  0  0  0  0  0  0  0  0  0
   -1.0278    0.9126    3.6026 C   0  0  0  0  0  0  0  0  0  0  0  0
    0.1077    0.5829    2.8529 C   0  0  0  0  0  0  0  0  0  0  0  0
    0.0401    0.3226    1.4780 C   0  0  0  0  0  0  0  0  0  0  0  0
    1.2061   -0.0150    0.7655 C   0  0  0  0  0  0  0  0  0  0  0  0
    1.2082   -0.2957   -0.6217 C   0  0  0  0  0  0  0  0  0  0  0  0
    4.1050   -1.9962   -0.0873 C   0  0  0  0  0  0  0  0  0  0  0  0
    3.3069   -3.1677   -0.1143 C   0  0  0  0  0  0  0  0  0  0  0  0
    3.7551   -4.3633    0.4825 C   0  0  0  0  0  0  0  0  0  0  0  0
    2.9224   -5.8705    0.5480 S   0  0  0  0  0  0  0  0  0  0  0  0
    4.1144   -7.6567    1.6988 H   0  0  0  0  0  0  0  0  0  0  0  0
    6.1297   -6.0382    2.1775 H   0  0  0  0  0  0  0  0  0  0  0  0
    6.7614   -3.3211    1.6301 H   0  0  0  0  0  0  0  0  0  0  0  0
    7.1470   -1.0122    1.0970 H   0  0  0  0  0  0  0  0  0  0  0  0
    3.2574    1.8002   -1.6679 H   0  0  0  0  0  0  0  0  0  0  0  0
    6.6636    5.9045   -1.2788 H   0  0  0  0  0  0  0  0  0  0  0  0
    8.0239    4.0297   -0.0359 H   0  0  0  0  0  0  0  0  0  0  0  0
    7.6298    1.2920    0.6190 H   0  0  0  0  0  0  0  0  0  0  0  0
    4.3973   -1.3679   -3.1428 H   0  0  0  0  0  0  0  0  0  0  0  0
    4.1519   -1.7874   -5.5341 H   0  0  0  0  0  0  0  0  0  0  0  0
    1.9290   -1.5936   -6.6206 H   0  0  0  0  0  0  0  0  0  0  0  0
   -0.0420   -0.9796   -5.2842 H   0  0  0  0  0  0  0  0  0  0  0  0
   -1.0563   -0.3973   -3.1684 H   0  0  0  0  0  0  0  0  0  0  0  0
   -2.1310    0.1721   -1.1270 H   0  0  0  0  0  0  0  0  0  0  0  0
   -2.4608    3.2526    0.8403 H   0  0  0  0  0  0  0  0  0  0  0  0
   -4.4944    7.6876   -1.3566 H   0  0  0  0  0  0  0  0  0  0  0  0
   -6.4237    5.9733   -1.8557 H   0  0  0  0  0  0  0  0  0  0  0  0
   -6.9051    3.2161   -1.3626 H   0  0  0  0  0  0  0  0  0  0  0  0
   -7.1630    0.8796   -0.8756 H   0  0  0  0  0  0  0  0  0  0  0  0
   -3.1198   -1.7716    1.8271 H   0  0  0  0  0  0  0  0  0  0  0  0
   -6.2889   -6.0510    1.3475 H   0  0  0  0  0  0  0  0  0  0  0  0
   -7.7553   -4.2280    0.1486 H   0  0  0  0  0  0  0  0  0  0  0  0
   -7.5173   -1.4581   -0.4446 H   0  0  0  0  0  0  0  0  0  0  0  0
   -4.3977    1.3945    3.3483 H   0  0  0  0  0  0  0  0  0  0  0  0
   -4.1508    1.8221    5.7384 H   0  0  0  0  0  0  0  0  0  0  0  0
   -1.9191    1.6770    6.8151 H   0  0  0  0  0  0  0  0  0  0  0  0
    0.0588    1.1025    5.4705 H   0  0  0  0  0  0  0  0  0  0  0  0
    1.0731    0.5237    3.3547 H   0  0  0  0  0  0  0  0  0  0  0  0
    2.1446   -0.0637    1.3167 H   0  0  0  0  0  0  0  0  0  0  0  0
    2.3308   -3.1645   -0.5946 H   0  0  0  0  0  0  0  0  0  0  0  0
  1  2  4  0
  2  3  4  0
  3  4  4  0
  4  5  4  0
  5  6  4  0
  6  7  4  0
  7  8  4  0
  8  9  4  0
  9 10  4  0
 10 11  4  0
 11 12  4  0
 12 13  4  0
 13 14  4  0
 14 15  4  0
  8 16  4  0
 16 17  1  0
 17 18  4  0
 18 19  4  0
 19 20  4  0
 20 21  4  0
 21 22  4  0
 22 23  4  0
 23 24  4  0
 24 25  4  0
 25 26  4  0
 26 27  4  0
 27 28  4  0
 28 29  1  0
 29 30  4  0
 30 31  4  0
 31 32  4  0
 32 33  4  0
 33 34  4  0
 34 35  4  0
 35 36  4  0
 36 37  4  0
 37 38  4  0
 38 39  4  0
 39 40  4  0
 40 41  4  0
 41 42  4  0
 42 43  4  0
 43 44  4  0
 44 45  4  0
 45 46  4  0
 46 47  4  0
 47 48  4  0
 28 49  4  0
 49 50  4  0
 50 51  4  0
 51 52  4  0
 52 53  4  0
 53 54  4  0
 54 55  4  0
 55 56  4  0
 56 57  4  0
 57 58  4  0
 16 59  4  0
 59 60  4  0
 60 61  4  0
 61 62  4  0
 62  1  4  0
 61  3  4  0
 59  5  4  0
 15  7  4  0
 58 17  4  0
 14 10  4  0
 23 18  4  0
 58 25  4  0
 56 27  4  0
 41 29  4  0
 47 43  4  0
 54 49  4  0
 38 30  4  0
 48 40  4  0
 36 32  4  0
  1 63  1  0
  2 64  1  0
  4 65  1  0
  6 66  1  0
  9 67  1  0
 12 68  1  0
 13 69  1  0
 15 70  1  0
 19 71  1  0
 20 72  1  0
 21 73  1  0
 22 74  1  0
 24 75  1  0
 26 76  1  0
 31 77  1  0
 34 78  1  0
 35 79  1  0
 37 80  1  0
 39 81  1  0
 42 82  1  0
 45 83  1  0
 46 84  1  0
 48 85  1  0
 50 86  1  0
 51 87  1  0
 52 88  1  0
 53 89  1  0
 55 90  1  0
 57 91  1  0
 60 92  1  0
M  END
