
     RDKit          3D

 86 98  0  0  0  0  0  0  0  0999 V2000
    6.8894    3.9201   -0.5973 C   0  0  0  0  0  0  0  0  0  0  0  0
    7.0944    2.6270   -0.1247 C   0  0  0  0  0  0  0  0  0  0  0  0
    6.0132    1.7533    0.0887 C   0  0  0  0  0  0  0  0  0  0  0  0
    6.2330    0.5345    0.7246 C   0  0  0  0  0  0  0  0  0  0  0  0
    5.1586   -0.1657    1.2556 C   0  0  0  0  0  0  0  0  0  0  0  0
    5.4685   -1.1977    2.1820 C   0  0  0  0  0  0  0  0  0  0  0  0
    4.3460   -1.6666    2.8563 C   0  0  0  0  0  0  0  0  0  0  0  0
    4.3964   -2.6350    3.8274 C   0  0  0  0  0  0  0  0  0  0  0  0
    2.8320   -2.9331    4.4844 S   0  0  0  0  0  0  0  0  0  0  0  0
    2.1010   -1.7424    3.4777 C   0  0  0  0  0  0  0  0  0  0  0  0
    3.0318   -1.1544    2.6584 C   0  0  0  0  0  0  0  0  0  0  0  0
    2.7170   -0.1636    1.7288 C   0  0  0  0  0  0  0  0  0  0  0  0
    3.8092    0.2580    0.9073 C   0  0  0  0  0  0  0  0  0  0  0  0
    3.6444    1.1598   -0.1862 C   0  0  0  0  0  0  0  0  0  0  0  0
    2.4284    1.1592   -1.1749 C   0  0  0  0  0  0  0  0  0  0  0  0
    2.4032    1.9634   -2.3685 C   0  0  0  0  0  0  0  0  0  0  0  0
    3.5403    2.3156   -3.1439 C   0  0  0  0  0  0  0  0  0  0  0  0
    3.4728    3.1785   -4.2423 C   0  0  0  0  0  0  0  0  0  0  0  0
    2.2508    3.7005   -4.6311 C   0  0  0  0  0  0  0  0  0  0  0  0
    1.0975    3.3027   -3.9624 C   0  0  0  0  0  0  0  0  0  0  0  0
    1.1601    2.4037   -2.8827 C   0  0  0  0  0  0  0  0  0  0  0  0
   -0.0206    1.8945   -2.3537 C   0  0  0  0  0  0  0  0  0  0  0  0
    0.0259    0.7866   -1.5131 C   0  0  0  0  0  0  0  0  0  0  0  0
   -1.1610    0.0919   -1.2050 C   0  0  0  0  0  0  0  0  0  0  0  0
   -1.1944   -1.1023   -0.4496 C   0  0  0  0  0  0  0  0  0  0  0  0
   -2.3769   -1.7704    0.0126 C   0  0  0  0  0  0  0  0  0  0  0  0
   -3.6678   -1.0325    0.5084 C   0  0  0  0  0  0  0  0  0  0  0  0
   -4.7684   -1.7319    1.1015 C   0  0  0  0  0  0  0  0  0  0  0  0
   -4.6465   -2.8738    1.9364 C   0  0  0  0  0  0  0  0  0  0  0  0
   -5.7536   -3.5803    2.4146 C   0  0  0  0  0  0  0  0  0  0  0  0
   -7.0311   -3.1508    2.0953 C   0  0  0  0  0  0  0  0  0  0  0  0
   -7.1942   -1.9817    1.3576 C   0  0  0  0  0  0  0  0  0  0  0  0
   -6.0821   -1.2445    0.9129 C   0  0  0  0  0  0  0  0  0  0  0  0
   -6.2773    0.0074    0.3359 C   0  0  0  0  0  0  0  0  0  0  0  0
   -5.2078    0.8849    0.2220 C   0  0  0  0  0  0  0  0  0  0  0  0
   -5.5258    2.2449   -0.0405 C   0  0  0  0  0  0  0  0  0  0  0  0
   -4.4322    3.0905    0.1137 C   0  0  0  0  0  0  0  0  0  0  0  0
   -4.4984    4.4515   -0.0507 C   0  0  0  0  0  0  0  0  0  0  0  0
   -2.9727    5.1868    0.2643 S   0  0  0  0  0  0  0  0  0  0  0  0
   -2.2390    3.6756    0.6428 C   0  0  0  0  0  0  0  0  0  0  0  0
   -3.1391    2.6477    0.5144 C   0  0  0  0  0  0  0  0  0  0  0  0
   -2.8136    1.3115    0.7453 C   0  0  0  0  0  0  0  0  0  0  0  0
   -3.8635    0.3808    0.4659 C   0  0  0  0  0  0  0  0  0  0  0  0
   -2.2865   -3.2035   -0.0773 C   0  0  0  0  0  0  0  0  0  0  0  0
   -3.3672   -4.0769   -0.3731 C   0  0  0  0  0  0  0  0  0  0  0  0
   -3.2446   -5.4699   -0.3567 C   0  0  0  0  0  0  0  0  0  0  0  0
   -2.0183   -6.0473   -0.0743 C   0  0  0  0  0  0  0  0  0  0  0  0
   -0.9098   -5.2296    0.1209 C   0  0  0  0  0  0  0  0  0  0  0  0
   -1.0244   -3.8291    0.0640 C   0  0  0  0  0  0  0  0  0  0  0  0
    0.1288   -3.0522    0.0840 C   0  0  0  0  0  0  0  0  0  0  0  0
    0.0596   -1.7121   -0.2843 C   0  0  0  0  0  0  0  0  0  0  0  0
    1.2442   -0.9942   -0.5460 C   0  0  0  0  0  0  0  0  0  0  0  0
    1.2634    0.3352   -1.0262 C   0  0  0  0  0  0  0  0  0  0  0  0
    4.6997    2.1245   -0.2795 C   0  0  0  0  0  0  0  0  0  0  0  0
    4.5255    3.4786   -0.6700 C   0  0  0  0  0  0  0  0  0  0  0  0
    5.5980    4.3585   -0.8394 C   0  0  0  0  0  0  0  0  0  0  0  0
    7.7314    4.5928   -0.7347 H   0  0  0  0  0  0  0  0  0  0  0  0
    8.1085    2.3209    0.1248 H   0  0  0  0  0  0  0  0  0  0  0  0
    7.2508    0.2412    0.9769 H   0  0  0  0  0  0  0  0  0  0  0  0
    6.4780   -1.5262    2.3941 H   0  0  0  0  0  0  0  0  0  0  0  0
    5.2503   -3.1861    4.1966 H   0  0  0  0  0  0  0  0  0  0  0  0
    1.0370   -1.5572    3.5413 H   0  0  0  0  0  0  0  0  0  0  0  0
    1.7217    0.2545    1.6413 H   0  0  0  0  0  0  0  0  0  0  0  0
    4.5157    1.8970   -2.9002 H   0  0  0  0  0  0  0  0  0  0  0  0
    4.3786    3.4353   -4.7851 H   0  0  0  0  0  0  0  0  0  0  0  0
    2.1874    4.3779   -5.4779 H   0  0  0  0  0  0  0  0  0  0  0  0
    0.1366    3.6647   -4.3230 H   0  0  0  0  0  0  0  0  0  0  0  0
   -0.9797    2.2465   -2.7296 H   0  0  0  0  0  0  0  0  0  0  0  0
   -2.0993    0.4730   -1.6094 H   0  0  0  0  0  0  0  0  0  0  0  0
   -3.6595   -3.2260    2.2340 H   0  0  0  0  0  0  0  0  0  0  0  0
   -5.6077   -4.4636    3.0305 H   0  0  0  0  0  0  0  0  0  0  0  0
   -7.8988   -3.6975    2.4539 H   0  0  0  0  0  0  0  0  0  0  0  0
   -8.2044   -1.6208    1.1746 H   0  0  0  0  0  0  0  0  0  0  0  0
   -7.2922    0.3632    0.1655 H   0  0  0  0  0  0  0  0  0  0  0  0
   -6.5270    2.5918   -0.2623 H   0  0  0  0  0  0  0  0  0  0  0  0
   -5.3435    5.0636   -0.3340 H   0  0  0  0  0  0  0  0  0  0  0  0
   -1.1945    3.6343    0.9220 H   0  0  0  0  0  0  0  0  0  0  0  0
   -1.8397    1.0058    1.1075 H   0  0  0  0  0  0  0  0  0  0  0  0
   -4.3395   -3.6669   -0.6427 H   0  0  0  0  0  0  0  0  0  0  0  0
   -4.1106   -6.0920   -0.5662 H   0  0  0  0  0  0  0  0  0  0  0  0
   -1.9125   -7.1282   -0.0515 H   0  0  0  0  0  0  0  0  0  0  0  0
    0.0614   -5.6975    0.2700 H   0  0  0  0  0  0  0  0  0  0  0  0
    1.1002   -3.5261    0.2145 H   0  0  0  0  0  0  0  0  0  0  0  0
    2.1964   -1.5091   -0.4149 H   0  0  0  0  0  0  0  0  0  0  0  0
    3.5235    3.8692   -0.8433 H   0  0  0  0  0  0  0  0  0  0  0  0
    5.4150    5.3794   -1.1634 H   0  0  0  0  0  0  0  0  0  0  0  0
  1  2  4  0
  2  3  4  0
  3  4  4  0
  4  5  4  0
  5  6  4  0
  6  7  4  0
  7  8  4  0
  8  9  4  0
  9 10  4  0
 10 11  4  0
 11 12  4  0
 12 13  4  0
 13 14  4  0
 14 15  1  0
 15 16  4  0
 16 17  4  0
 17 18  4  0
 18 19  4  0
 19 20  4  0
 20 21  4  0
 21 22  4  0
 22 23  4  0
 23 24  4  0
 24 25  4  0
 25 26  4  0
 26 27  1  0
 27 28  4  0
 28 29  4  0
 29 30  4  0
 30 31  4  0
 31 32  4  0
 32 33  4  0
 33 34  4  0
 34 35  4  0
 35 36  4  0
 36 37  4  0
 37 38  4  0
 38 39  4  0
 39 40  4  0
 40 41  4  0
 41 42  4  0
 42 43  4  0
 26 44  4  0
 44 45  4  0
 45 46  4  0
 46 47  4  0
 47 48  4  0
 48 49  4  0
 49 50  4  0
 50 51  4  0
 51 52  4  0
 52 53  4  0
 14 54  4  0
 54 55  4  0
 55 56  4  0
 56  1  4  0
 54  3  4  0
 13  5  4  0
 53 15  4  0
 11  7  4  0
 21 16  4  0
 53 23  4  0
 51 25  4  0
 43 27  4  0
 49 44  4  0
 33 28  4  0
 43 35  4  0
 41 37  4  0
  1 57  1  0
  2 58  1  0
  4 59  1  0
  6 60  1  0
  8 61  1  0
 10 62  1  0
 12 63  1  0
 17 64  1  0
 18 65  1  0
 19 66  1  0
 20 67  1  0
 22 68  1  0
 24 69  1  0
 29 70  1  0
 30 71  1  0
 31 72  1  0
 32 73  1  0
 34 74  1  0
 36 75  1  0
 38 76  1  0
 40 77  1  0
 42 78  1  0
 45 79  1  0
 46 80  1  0
 47 81  1  0
 48 82  1  0
 50 83  1  0
 52 84  1  0
 55 85  1  0
 56 86  1  0
M  END
