
     RDKit          3D

 86 98  0  0  0  0  0  0  0  0999 V2000
  -10.5285    2.3506   -0.2330 C   0  0  0  0  0  0  0  0  0  0  0  0
  -10.0143    1.1534   -0.7333 C   0  0  0  0  0  0  0  0  0  0  0  0
   -8.7180    0.7291   -0.3956 C   0  0  0  0  0  0  0  0  0  0  0  0
   -8.1908   -0.4745   -0.8933 C   0  0  0  0  0  0  0  0  0  0  0  0
   -6.9001   -0.9103   -0.5642 C   0  0  0  0  0  0  0  0  0  0  0  0
   -6.4424   -2.1373   -1.1075 C   0  0  0  0  0  0  0  0  0  0  0  0
   -5.1459   -2.4583   -0.7082 C   0  0  0  0  0  0  0  0  0  0  0  0
   -4.5031   -3.5984   -1.1192 C   0  0  0  0  0  0  0  0  0  0  0  0
   -2.9209   -3.6924   -0.4560 S   0  0  0  0  0  0  0  0  0  0  0  0
   -3.0963   -2.1949    0.3880 C   0  0  0  0  0  0  0  0  0  0  0  0
   -1.9605   -1.7016    1.1913 C   0  0  0  0  0  0  0  0  0  0  0  0
   -1.8503   -2.0824    2.5651 C   0  0  0  0  0  0  0  0  0  0  0  0
   -2.7798   -2.9135    3.2420 C   0  0  0  0  0  0  0  0  0  0  0  0
   -2.6225   -3.2583    4.5864 C   0  0  0  0  0  0  0  0  0  0  0  0
   -1.5307   -2.7824    5.2969 C   0  0  0  0  0  0  0  0  0  0  0  0
   -0.6012   -1.9613    4.6620 C   0  0  0  0  0  0  0  0  0  0  0  0
   -0.7496   -1.6053    3.3098 C   0  0  0  0  0  0  0  0  0  0  0  0
    0.1965   -0.7730    2.6976 C   0  0  0  0  0  0  0  0  0  0  0  0
    0.0872   -0.3835    1.3556 C   0  0  0  0  0  0  0  0  0  0  0  0
    1.0573    0.4615    0.7834 C   0  0  0  0  0  0  0  0  0  0  0  0
    1.0053    0.8966   -0.5642 C   0  0  0  0  0  0  0  0  0  0  0  0
    1.9749    1.7523   -1.1779 C   0  0  0  0  0  0  0  0  0  0  0  0
    3.1236    2.2318   -0.3849 C   0  0  0  0  0  0  0  0  0  0  0  0
    4.3614    1.6641   -0.1650 C   0  0  0  0  0  0  0  0  0  0  0  0
    4.7630    0.4376   -0.7026 C   0  0  0  0  0  0  0  0  0  0  0  0
    6.0792    0.0687   -0.3273 C   0  0  0  0  0  0  0  0  0  0  0  0
    6.5922   -1.1445   -0.8040 C   0  0  0  0  0  0  0  0  0  0  0  0
    7.8863   -1.5831   -0.4775 C   0  0  0  0  0  0  0  0  0  0  0  0
    8.3874   -2.8026   -0.9630 C   0  0  0  0  0  0  0  0  0  0  0  0
    9.6742   -3.2297   -0.6324 C   0  0  0  0  0  0  0  0  0  0  0  0
   10.4765   -2.4436    0.1880 C   0  0  0  0  0  0  0  0  0  0  0  0
    9.9931   -1.2293    0.6776 C   0  0  0  0  0  0  0  0  0  0  0  0
    8.7002   -0.7855    0.3535 C   0  0  0  0  0  0  0  0  0  0  0  0
    8.2040    0.4354    0.8407 C   0  0  0  0  0  0  0  0  0  0  0  0
    6.9163    0.8899    0.5271 C   0  0  0  0  0  0  0  0  0  0  0  0
    6.4903    2.1324    1.0605 C   0  0  0  0  0  0  0  0  0  0  0  0
    5.1930    2.4709    0.6788 C   0  0  0  0  0  0  0  0  0  0  0  0
    4.5781    3.6289    1.0825 C   0  0  0  0  0  0  0  0  0  0  0  0
    2.9861    3.7406    0.4451 S   0  0  0  0  0  0  0  0  0  0  0  0
    1.8631    2.1303   -2.5528 C   0  0  0  0  0  0  0  0  0  0  0  0
    2.7962    2.9529   -3.2348 C   0  0  0  0  0  0  0  0  0  0  0  0
    2.6386    3.2939   -4.5802 C   0  0  0  0  0  0  0  0  0  0  0  0
    1.5428    2.8220   -5.2868 C   0  0  0  0  0  0  0  0  0  0  0  0
    0.6098    2.0087   -4.6472 C   0  0  0  0  0  0  0  0  0  0  0  0
    0.7586    1.6573   -3.2940 C   0  0  0  0  0  0  0  0  0  0  0  0
   -0.1895    0.8311   -2.6780 C   0  0  0  0  0  0  0  0  0  0  0  0
   -0.0779    0.4437   -1.3357 C   0  0  0  0  0  0  0  0  0  0  0  0
   -1.0473   -0.4010   -0.7637 C   0  0  0  0  0  0  0  0  0  0  0  0
   -0.9941   -0.8385    0.5826 C   0  0  0  0  0  0  0  0  0  0  0  0
   -4.3425   -1.6488    0.1602 C   0  0  0  0  0  0  0  0  0  0  0  0
   -4.7752   -0.4370    0.7072 C   0  0  0  0  0  0  0  0  0  0  0  0
   -6.0921   -0.0868    0.3156 C   0  0  0  0  0  0  0  0  0  0  0  0
   -6.6355    1.1096    0.8010 C   0  0  0  0  0  0  0  0  0  0  0  0
   -7.9327    1.5288    0.4605 C   0  0  0  0  0  0  0  0  0  0  0  0
   -8.4648    2.7309    0.9564 C   0  0  0  0  0  0  0  0  0  0  0  0
   -9.7541    3.1389    0.6117 C   0  0  0  0  0  0  0  0  0  0  0  0
  -11.5331    2.6655   -0.5029 H   0  0  0  0  0  0  0  0  0  0  0  0
  -10.6368    0.5514   -1.3918 H   0  0  0  0  0  0  0  0  0  0  0  0
   -8.8078   -1.0830   -1.5531 H   0  0  0  0  0  0  0  0  0  0  0  0
   -7.0425   -2.7545   -1.7641 H   0  0  0  0  0  0  0  0  0  0  0  0
   -4.8613   -4.3841   -1.7699 H   0  0  0  0  0  0  0  0  0  0  0  0
   -3.6509   -3.3070    2.7215 H   0  0  0  0  0  0  0  0  0  0  0  0
   -3.3547   -3.8984    5.0715 H   0  0  0  0  0  0  0  0  0  0  0  0
   -1.4005   -3.0469    6.3427 H   0  0  0  0  0  0  0  0  0  0  0  0
    0.2486   -1.5965    5.2360 H   0  0  0  0  0  0  0  0  0  0  0  0
    1.0423   -0.4143    3.2842 H   0  0  0  0  0  0  0  0  0  0  0  0
    1.8836    0.7890    1.4139 H   0  0  0  0  0  0  0  0  0  0  0  0
    4.1382   -0.1758   -1.3406 H   0  0  0  0  0  0  0  0  0  0  0  0
    5.9731   -1.7697   -1.4463 H   0  0  0  0  0  0  0  0  0  0  0  0
    7.7753   -3.4313   -1.6061 H   0  0  0  0  0  0  0  0  0  0  0  0
   10.0491   -4.1751   -1.0164 H   0  0  0  0  0  0  0  0  0  0  0  0
   11.4790   -2.7737    0.4474 H   0  0  0  0  0  0  0  0  0  0  0  0
   10.6370   -0.6293    1.3171 H   0  0  0  0  0  0  0  0  0  0  0  0
    8.8435    1.0423    1.4803 H   0  0  0  0  0  0  0  0  0  0  0  0
    7.1125    2.7481    1.6975 H   0  0  0  0  0  0  0  0  0  0  0  0
    4.9621    4.4181    1.7142 H   0  0  0  0  0  0  0  0  0  0  0  0
    3.6712    3.3421   -2.7178 H   0  0  0  0  0  0  0  0  0  0  0  0
    3.3746    3.9268   -5.0690 H   0  0  0  0  0  0  0  0  0  0  0  0
    1.4127    3.0832   -6.3335 H   0  0  0  0  0  0  0  0  0  0  0  0
   -0.2421    1.6459   -5.2191 H   0  0  0  0  0  0  0  0  0  0  0  0
   -1.0381    0.4745   -3.2618 H   0  0  0  0  0  0  0  0  0  0  0  0
   -1.8724   -0.7291   -1.3950 H   0  0  0  0  0  0  0  0  0  0  0  0
   -4.1716    0.1791    1.3627 H   0  0  0  0  0  0  0  0  0  0  0  0
   -6.0383    1.7361    1.4628 H   0  0  0  0  0  0  0  0  0  0  0  0
   -7.8752    3.3611    1.6188 H   0  0  0  0  0  0  0  0  0  0  0  0
  -10.1520    4.0715    1.0034 H   0  0  0  0  0  0  0  0  0  0  0  0
  1  2  4  0
  2  3  4  0
  3  4  4  0
  4  5  4  0
  5  6  4  0
  6  7  4  0
  7  8  4  0
  8  9  4  0
  9 10  4  0
 10 11  1  0
 11 12  4  0
 12 13  4  0
 13 14  4  0
 14 15  4  0
 15 16  4  0
 16 17  4  0
 17 18  4  0
 18 19  4  0
 19 20  4  0
 20 21  4  0
 21 22  4  0
 22 23  1  0
 23 24  4  0
 24 25  4  0
 25 26  4  0
 26 27  4  0
 27 28  4  0
 28 29  4  0
 29 30  4  0
 30 31  4  0
 31 32  4  0
 32 33  4  0
 33 34  4  0
 34 35  4  0
 35 36  4  0
 36 37  4  0
 37 38  4  0
 38 39  4  0
 22 40  4  0
 40 41  4  0
 41 42  4  0
 42 43  4  0
 43 44  4  0
 44 45  4  0
 45 46  4  0
 46 47  4  0
 47 48  4  0
 48 49  4  0
 10 50  4  0
 50 51  4  0
 51 52  4  0
 52 53  4  0
 53 54  4  0
 54 55  4  0
 55 56  4  0
 56  1  4  0
 54  3  4  0
 52  5  4  0
 50  7  4  0
 49 11  4  0
 17 12  4  0
 49 19  4  0
 47 21  4  0
 39 23  4  0
 45 40  4  0
 37 24  4  0
 35 26  4  0
 33 28  4  0
  1 57  1  0
  2 58  1  0
  4 59  1  0
  6 60  1  0
  8 61  1  0
 13 62  1  0
 14 63  1  0
 15 64  1  0
 16 65  1  0
 18 66  1  0
 20 67  1  0
 25 68  1  0
 27 69  1  0
 29 70  1  0
 30 71  1  0
 31 72  1  0
 32 73  1  0
 34 74  1  0
 36 75  1  0
 38 76  1  0
 41 77  1  0
 42 78  1  0
 43 79  1  0
 44 80  1  0
 46 81  1  0
 48 82  1  0
 51 83  1  0
 53 84  1  0
 55 85  1  0
 56 86  1  0
M  END
