
     RDKit          3D

 86 98  0  0  0  0  0  0  0  0999 V2000
    3.8936   -0.5360    4.4481 C   0  0  0  0  0  0  0  0  0  0  0  0
    2.5926   -0.2218    4.0490 C   0  0  0  0  0  0  0  0  0  0  0  0
    2.3677    0.6740    2.9968 C   0  0  0  0  0  0  0  0  0  0  0  0
    0.9915    1.0090    2.5711 C   0  0  0  0  0  0  0  0  0  0  0  0
    0.3198    2.1304    3.1555 C   0  0  0  0  0  0  0  0  0  0  0  0
    0.8944    2.9697    4.1433 C   0  0  0  0  0  0  0  0  0  0  0  0
    0.2041    4.0560    4.6858 C   0  0  0  0  0  0  0  0  0  0  0  0
   -1.0845    4.3371    4.2572 C   0  0  0  0  0  0  0  0  0  0  0  0
   -1.6789    3.5311    3.2887 C   0  0  0  0  0  0  0  0  0  0  0  0
   -0.9937    2.4352    2.7353 C   0  0  0  0  0  0  0  0  0  0  0  0
   -1.6135    1.6416    1.7632 C   0  0  0  0  0  0  0  0  0  0  0  0
   -0.9686    0.5420    1.1824 C   0  0  0  0  0  0  0  0  0  0  0  0
   -1.6292   -0.2285    0.2070 C   0  0  0  0  0  0  0  0  0  0  0  0
   -1.0377   -1.3501   -0.4227 C   0  0  0  0  0  0  0  0  0  0  0  0
   -1.6907   -2.1479   -1.4175 C   0  0  0  0  0  0  0  0  0  0  0  0
   -3.0691   -1.8160   -1.8381 C   0  0  0  0  0  0  0  0  0  0  0  0
   -3.2979   -0.9486   -2.9183 C   0  0  0  0  0  0  0  0  0  0  0  0
   -4.6005   -0.6279   -3.3363 C   0  0  0  0  0  0  0  0  0  0  0  0
   -4.8243    0.2354   -4.4214 C   0  0  0  0  0  0  0  0  0  0  0  0
   -6.1158    0.5621   -4.8535 C   0  0  0  0  0  0  0  0  0  0  0  0
   -6.2544    1.4385   -5.9600 C   0  0  0  0  0  0  0  0  0  0  0  0
   -7.5861    1.6820   -6.2904 C   0  0  0  0  0  0  0  0  0  0  0  0
   -7.9646    2.4977   -7.3275 C   0  0  0  0  0  0  0  0  0  0  0  0
   -9.6796    2.5787   -7.4589 S   0  0  0  0  0  0  0  0  0  0  0  0
   -9.9072    1.5164   -6.1230 C   0  0  0  0  0  0  0  0  0  0  0  0
   -8.7035    1.1174   -5.5977 C   0  0  0  0  0  0  0  0  0  0  0  0
   -8.5964    0.2546   -4.5084 C   0  0  0  0  0  0  0  0  0  0  0  0
   -7.2500   -0.0119   -4.1505 C   0  0  0  0  0  0  0  0  0  0  0  0
   -7.0047   -0.8692   -3.0701 C   0  0  0  0  0  0  0  0  0  0  0  0
   -5.7008   -1.1858   -2.6546 C   0  0  0  0  0  0  0  0  0  0  0  0
   -5.4716   -2.0501   -1.5728 C   0  0  0  0  0  0  0  0  0  0  0  0
   -4.1714   -2.3623   -1.1699 C   0  0  0  0  0  0  0  0  0  0  0  0
   -1.0173   -3.2643   -2.0089 C   0  0  0  0  0  0  0  0  0  0  0  0
   -1.5918   -4.0989   -3.0007 C   0  0  0  0  0  0  0  0  0  0  0  0
   -0.8988   -5.1784   -3.5529 C   0  0  0  0  0  0  0  0  0  0  0  0
    0.3916   -5.4583   -3.1291 C   0  0  0  0  0  0  0  0  0  0  0  0
    0.9851   -4.6577   -2.1556 C   0  0  0  0  0  0  0  0  0  0  0  0
    0.2980   -3.5673   -1.5933 C   0  0  0  0  0  0  0  0  0  0  0  0
    0.9175   -2.7767   -0.6179 C   0  0  0  0  0  0  0  0  0  0  0  0
    0.2716   -1.6801   -0.0321 C   0  0  0  0  0  0  0  0  0  0  0  0
    0.9318   -0.9100    0.9443 C   0  0  0  0  0  0  0  0  0  0  0  0
    0.3397    0.2109    1.5753 C   0  0  0  0  0  0  0  0  0  0  0  0
    3.4755    1.2492    2.3536 C   0  0  0  0  0  0  0  0  0  0  0  0
    4.7900    0.9440    2.7460 C   0  0  0  0  0  0  0  0  0  0  0  0
    5.8952    1.5248    2.1022 C   0  0  0  0  0  0  0  0  0  0  0  0
    7.2113    1.2312    2.4808 C   0  0  0  0  0  0  0  0  0  0  0  0
    8.2708    1.8617    1.7796 C   0  0  0  0  0  0  0  0  0  0  0  0
    9.5272    1.4861    2.2510 C   0  0  0  0  0  0  0  0  0  0  0  0
   10.7002    1.9680    1.7257 C   0  0  0  0  0  0  0  0  0  0  0  0
   12.0640    1.3012    2.5382 S   0  0  0  0  0  0  0  0  0  0  0  0
   11.0736    0.3677    3.5930 C   0  0  0  0  0  0  0  0  0  0  0  0
    9.7419    0.5657    3.3252 C   0  0  0  0  0  0  0  0  0  0  0  0
    8.7204   -0.0672    4.0312 C   0  0  0  0  0  0  0  0  0  0  0  0
    7.4289    0.2972    3.5717 C   0  0  0  0  0  0  0  0  0  0  0  0
    6.3131   -0.2701    4.2007 C   0  0  0  0  0  0  0  0  0  0  0  0
    5.0010    0.0390    3.8059 C   0  0  0  0  0  0  0  0  0  0  0  0
    4.0340   -1.2358    5.2692 H   0  0  0  0  0  0  0  0  0  0  0  0
    1.7503   -0.6796    4.5640 H   0  0  0  0  0  0  0  0  0  0  0  0
    1.9035    2.7834    4.5064 H   0  0  0  0  0  0  0  0  0  0  0  0
    0.6786    4.6776    5.4404 H   0  0  0  0  0  0  0  0  0  0  0  0
   -1.6279    5.1809    4.6732 H   0  0  0  0  0  0  0  0  0  0  0  0
   -2.6906    3.7675    2.9652 H   0  0  0  0  0  0  0  0  0  0  0  0
   -2.6273    1.8873    1.4480 H   0  0  0  0  0  0  0  0  0  0  0  0
   -2.6425    0.0603   -0.0708 H   0  0  0  0  0  0  0  0  0  0  0  0
   -2.4412   -0.5220   -3.4386 H   0  0  0  0  0  0  0  0  0  0  0  0
   -3.9648    0.6588   -4.9402 H   0  0  0  0  0  0  0  0  0  0  0  0
   -5.4114    1.8669   -6.4868 H   0  0  0  0  0  0  0  0  0  0  0  0
   -7.3452    3.0527   -8.0184 H   0  0  0  0  0  0  0  0  0  0  0  0
  -10.9079    1.2530   -5.8095 H   0  0  0  0  0  0  0  0  0  0  0  0
   -9.4452   -0.1706   -3.9883 H   0  0  0  0  0  0  0  0  0  0  0  0
   -7.8459   -1.3074   -2.5347 H   0  0  0  0  0  0  0  0  0  0  0  0
   -6.3066   -2.4922   -1.0334 H   0  0  0  0  0  0  0  0  0  0  0  0
   -4.0196   -3.0378   -0.3302 H   0  0  0  0  0  0  0  0  0  0  0  0
   -2.6022   -3.9130   -3.3608 H   0  0  0  0  0  0  0  0  0  0  0  0
   -1.3722   -5.7948   -4.3126 H   0  0  0  0  0  0  0  0  0  0  0  0
    0.9373   -6.2965   -3.5539 H   0  0  0  0  0  0  0  0  0  0  0  0
    1.9985   -4.8927   -1.8363 H   0  0  0  0  0  0  0  0  0  0  0  0
    1.9327   -3.0210   -0.3061 H   0  0  0  0  0  0  0  0  0  0  0  0
    1.9462   -1.1969    1.2200 H   0  0  0  0  0  0  0  0  0  0  0  0
    3.3027    1.9467    1.5349 H   0  0  0  0  0  0  0  0  0  0  0  0
    5.7183    2.2246    1.2861 H   0  0  0  0  0  0  0  0  0  0  0  0
    8.1128    2.5596    0.9673 H   0  0  0  0  0  0  0  0  0  0  0  0
   10.8455    2.6695    0.9159 H   0  0  0  0  0  0  0  0  0  0  0  0
   11.5307   -0.2656    4.3407 H   0  0  0  0  0  0  0  0  0  0  0  0
    8.8878   -0.7620    4.8441 H   0  0  0  0  0  0  0  0  0  0  0  0
    6.4621   -0.9711    5.0210 H   0  0  0  0  0  0  0  0  0  0  0  0
  1  2  4  0
  2  3  4  0
  3  4  1  0
  4  5  4  0
  5  6  4  0
  6  7  4  0
  7  8  4  0
  8  9  4  0
  9 10  4  0
 10 11  4  0
 11 12  4  0
 12 13  4  0
 13 14  4  0
 14 15  4  0
 15 16  1  0
 16 17  4  0
 17 18  4  0
 18 19  4  0
 19 20  4  0
 20 21  4  0
 21 22  4  0
 22 23  4  0
 23 24  4  0
 24 25  4  0
 25 26  4  0
 26 27  4  0
 27 28  4  0
 28 29  4  0
 29 30  4  0
 30 31  4  0
 31 32  4  0
 15 33  4  0
 33 34  4  0
 34 35  4  0
 35 36  4  0
 36 37  4  0
 37 38  4  0
 38 39  4  0
 39 40  4  0
 40 41  4  0
 41 42  4  0
  3 43  4  0
 43 44  4  0
 44 45  4  0
 45 46  4  0
 46 47  4  0
 47 48  4  0
 48 49  4  0
 49 50  4  0
 50 51  4  0
 51 52  4  0
 52 53  4  0
 53 54  4  0
 54 55  4  0
 55 56  4  0
 56  1  4  0
 42  4  4  0
 56 44  4  0
 10  5  4  0
 42 12  4  0
 54 46  4  0
 40 14  4  0
 52 48  4  0
 32 16  4  0
 38 33  4  0
 30 18  4  0
 28 20  4  0
 26 22  4  0
  1 57  1  0
  2 58  1  0
  6 59  1  0
  7 60  1  0
  8 61  1  0
  9 62  1  0
 11 63  1  0
 13 64  1  0
 17 65  1  0
 19 66  1  0
 21 67  1  0
 23 68  1  0
 25 69  1  0
 27 70  1  0
 29 71  1  0
 31 72  1  0
 32 73  1  0
 34 74  1  0
 35 75  1  0
 36 76  1  0
 37 77  1  0
 39 78  1  0
 41 79  1  0
 43 80  1  0
 45 81  1  0
 47 82  1  0
 49 83  1  0
 51 84  1  0
 53 85  1  0
 55 86  1  0
M  END
