
     RDKit          3D

 84 96  0  0  0  0  0  0  0  0999 V2000
    7.7765   -3.6566   -0.4603 C   0  0  0  0  0  0  0  0  0  0  0  0
    6.5482   -3.6079    0.1960 C   0  0  0  0  0  0  0  0  0  0  0  0
    5.8416   -2.4004    0.3017 C   0  0  0  0  0  0  0  0  0  0  0  0
    6.3820   -1.2227   -0.2619 C   0  0  0  0  0  0  0  0  0  0  0  0
    7.6310   -1.2770   -0.9268 C   0  0  0  0  0  0  0  0  0  0  0  0
    8.3146   -2.4986   -1.0183 C   0  0  0  0  0  0  0  0  0  0  0  0
    8.1633   -0.1084   -1.4826 C   0  0  0  0  0  0  0  0  0  0  0  0
    7.4742    1.1013   -1.3872 C   0  0  0  0  0  0  0  0  0  0  0  0
    6.2365    1.1733   -0.7346 C   0  0  0  0  0  0  0  0  0  0  0  0
    5.5494    2.3871   -0.6440 C   0  0  0  0  0  0  0  0  0  0  0  0
    4.3174    2.4549    0.0015 C   0  0  0  0  0  0  0  0  0  0  0  0
    3.7361    1.3112    0.5769 C   0  0  0  0  0  0  0  0  0  0  0  0
    2.4103    1.4562    1.2354 C   0  0  0  0  0  0  0  0  0  0  0  0
    2.3364    1.8336    2.6152 C   0  0  0  0  0  0  0  0  0  0  0  0
    3.4700    2.0685    3.4334 C   0  0  0  0  0  0  0  0  0  0  0  0
    3.3514    2.4356    4.7762 C   0  0  0  0  0  0  0  0  0  0  0  0
    2.0940    2.5778    5.3440 C   0  0  0  0  0  0  0  0  0  0  0  0
    0.9595    2.3514    4.5682 C   0  0  0  0  0  0  0  0  0  0  0  0
    1.0664    1.9815    3.2160 C   0  0  0  0  0  0  0  0  0  0  0  0
   -0.0902    1.7565    2.4607 C   0  0  0  0  0  0  0  0  0  0  0  0
   -0.0331    1.3818    1.1124 C   0  0  0  0  0  0  0  0  0  0  0  0
   -1.2220    1.1593    0.3934 C   0  0  0  0  0  0  0  0  0  0  0  0
   -1.2405    0.7663   -0.9663 C   0  0  0  0  0  0  0  0  0  0  0  0
   -2.4392    0.5235   -1.7137 C   0  0  0  0  0  0  0  0  0  0  0  0
   -3.7629    0.7080   -1.0626 C   0  0  0  0  0  0  0  0  0  0  0  0
   -4.3785    1.9682   -1.1618 C   0  0  0  0  0  0  0  0  0  0  0  0
   -5.6132    2.2128   -0.5667 C   0  0  0  0  0  0  0  0  0  0  0  0
   -6.2672    1.2048    0.1471 C   0  0  0  0  0  0  0  0  0  0  0  0
   -7.5074    1.4490    0.7504 C   0  0  0  0  0  0  0  0  0  0  0  0
   -8.1634    0.4468    1.4660 C   0  0  0  0  0  0  0  0  0  0  0  0
   -7.5954   -0.8255    1.5956 C   0  0  0  0  0  0  0  0  0  0  0  0
   -8.2465   -1.8396    2.3134 C   0  0  0  0  0  0  0  0  0  0  0  0
   -7.6723   -3.1034    2.4363 C   0  0  0  0  0  0  0  0  0  0  0  0
   -6.4395   -3.3688    1.8433 C   0  0  0  0  0  0  0  0  0  0  0  0
   -5.7655   -2.3736    1.1201 C   0  0  0  0  0  0  0  0  0  0  0  0
   -6.3429   -1.0904    0.9917 C   0  0  0  0  0  0  0  0  0  0  0  0
   -5.6699   -0.0738    0.2621 C   0  0  0  0  0  0  0  0  0  0  0  0
   -4.4130   -0.3342   -0.3430 C   0  0  0  0  0  0  0  0  0  0  0  0
   -3.8667   -1.6270   -0.1942 C   0  0  0  0  0  0  0  0  0  0  0  0
   -4.5288   -2.6270    0.5218 C   0  0  0  0  0  0  0  0  0  0  0  0
   -2.3699    0.1119   -3.0832 C   0  0  0  0  0  0  0  0  0  0  0  0
   -3.5067   -0.1612   -3.8854 C   0  0  0  0  0  0  0  0  0  0  0  0
   -3.3935   -0.5629   -5.2184 C   0  0  0  0  0  0  0  0  0  0  0  0
   -2.1384   -0.7045   -5.7911 C   0  0  0  0  0  0  0  0  0  0  0  0
   -1.0011   -0.4453   -5.0291 C   0  0  0  0  0  0  0  0  0  0  0  0
   -1.1020   -0.0413   -3.6860 C   0  0  0  0  0  0  0  0  0  0  0  0
    0.0570    0.2084   -2.9406 C   0  0  0  0  0  0  0  0  0  0  0  0
    0.0045    0.6049   -1.5977 C   0  0  0  0  0  0  0  0  0  0  0  0
    1.1941    0.8373   -0.8809 C   0  0  0  0  0  0  0  0  0  0  0  0
    1.2129    1.2254    0.4810 C   0  0  0  0  0  0  0  0  0  0  0  0
    4.4218    0.0654    0.5013 C   0  0  0  0  0  0  0  0  0  0  0  0
    5.6755    0.0063   -0.1621 C   0  0  0  0  0  0  0  0  0  0  0  0
    3.9146   -1.1298    1.0539 C   0  0  0  0  0  0  0  0  0  0  0  0
    4.6088   -2.3383    0.9561 C   0  0  0  0  0  0  0  0  0  0  0  0
    8.3149   -4.5976   -0.5362 H   0  0  0  0  0  0  0  0  0  0  0  0
    6.1454   -4.5218    0.6271 H   0  0  0  0  0  0  0  0  0  0  0  0
    9.2749   -2.5567   -1.5260 H   0  0  0  0  0  0  0  0  0  0  0  0
    9.1221   -0.1281   -1.9961 H   0  0  0  0  0  0  0  0  0  0  0  0
    7.9162    1.9911   -1.8306 H   0  0  0  0  0  0  0  0  0  0  0  0
    5.9656    3.2940   -1.0770 H   0  0  0  0  0  0  0  0  0  0  0  0
    3.8007    3.4120    0.0561 H   0  0  0  0  0  0  0  0  0  0  0  0
    4.4748    1.9619    3.0279 H   0  0  0  0  0  0  0  0  0  0  0  0
    4.2439    2.6062    5.3725 H   0  0  0  0  0  0  0  0  0  0  0  0
    1.9939    2.8620    6.3880 H   0  0  0  0  0  0  0  0  0  0  0  0
   -0.0188    2.4654    5.0314 H   0  0  0  0  0  0  0  0  0  0  0  0
   -1.0641    1.8708    2.9367 H   0  0  0  0  0  0  0  0  0  0  0  0
   -2.1675    1.2903    0.9191 H   0  0  0  0  0  0  0  0  0  0  0  0
   -3.8860    2.7701   -1.7100 H   0  0  0  0  0  0  0  0  0  0  0  0
   -6.0571    3.2009   -0.6656 H   0  0  0  0  0  0  0  0  0  0  0  0
   -7.9774    2.4268    0.6694 H   0  0  0  0  0  0  0  0  0  0  0  0
   -9.1251    0.6708    1.9219 H   0  0  0  0  0  0  0  0  0  0  0  0
   -9.2093   -1.6516    2.7832 H   0  0  0  0  0  0  0  0  0  0  0  0
   -8.1855   -3.8820    2.9945 H   0  0  0  0  0  0  0  0  0  0  0  0
   -6.0062   -4.3607    1.9503 H   0  0  0  0  0  0  0  0  0  0  0  0
   -2.9045   -1.8751   -0.6394 H   0  0  0  0  0  0  0  0  0  0  0  0
   -4.0638   -3.6067    0.6053 H   0  0  0  0  0  0  0  0  0  0  0  0
   -4.5092   -0.0668   -3.4716 H   0  0  0  0  0  0  0  0  0  0  0  0
   -4.2881   -0.7650   -5.8016 H   0  0  0  0  0  0  0  0  0  0  0  0
   -2.0415   -1.0176   -6.8270 H   0  0  0  0  0  0  0  0  0  0  0  0
   -0.0246   -0.5643   -5.4946 H   0  0  0  0  0  0  0  0  0  0  0  0
    1.0291    0.0854   -3.4174 H   0  0  0  0  0  0  0  0  0  0  0  0
    2.1399    0.7017   -1.4051 H   0  0  0  0  0  0  0  0  0  0  0  0
    2.9587   -1.1360    1.5750 H   0  0  0  0  0  0  0  0  0  0  0  0
    4.1702   -3.2302    1.3980 H   0  0  0  0  0  0  0  0  0  0  0  0
  1  2  4  0
  2  3  4  0
  3  4  4  0
  4  5  4  0
  5  6  4  0
  5  7  4  0
  7  8  4  0
  8  9  4  0
  9 10  4  0
 10 11  4  0
 11 12  4  0
 12 13  1  0
 13 14  4  0
 14 15  4  0
 15 16  4  0
 16 17  4  0
 17 18  4  0
 18 19  4  0
 19 20  4  0
 20 21  4  0
 21 22  4  0
 22 23  4  0
 23 24  4  0
 24 25  1  0
 25 26  4  0
 26 27  4  0
 27 28  4  0
 28 29  4  0
 29 30  4  0
 30 31  4  0
 31 32  4  0
 32 33  4  0
 33 34  4  0
 34 35  4  0
 35 36  4  0
 36 37  4  0
 37 38  4  0
 38 39  4  0
 39 40  4  0
 24 41  4  0
 41 42  4  0
 42 43  4  0
 43 44  4  0
 44 45  4  0
 45 46  4  0
 46 47  4  0
 47 48  4  0
 48 49  4  0
 49 50  4  0
 12 51  4  0
 51 52  4  0
 51 53  4  0
 53 54  4  0
  6  1  4  0
 52  9  4  0
 54  3  4  0
 52  4  4  0
 50 13  4  0
 19 14  4  0
 50 21  4  0
 48 23  4  0
 38 25  4  0
 46 41  4  0
 37 28  4  0
 36 31  4  0
 40 35  4  0
  1 55  1  0
  2 56  1  0
  6 57  1  0
  7 58  1  0
  8 59  1  0
 10 60  1  0
 11 61  1  0
 15 62  1  0
 16 63  1  0
 17 64  1  0
 18 65  1  0
 20 66  1  0
 22 67  1  0
 26 68  1  0
 27 69  1  0
 29 70  1  0
 30 71  1  0
 32 72  1  0
 33 73  1  0
 34 74  1  0
 39 75  1  0
 40 76  1  0
 42 77  1  0
 43 78  1  0
 44 79  1  0
 45 80  1  0
 47 81  1  0
 49 82  1  0
 53 83  1  0
 54 84  1  0
M  END
