
     RDKit          3D

 92104  0  0  0  0  0  0  0  0999 V2000
   -4.4125    5.1570    1.0878 C   0  0  0  0  0  0  0  0  0  0  0  0
   -3.3025    4.9128    0.2932 C   0  0  0  0  0  0  0  0  0  0  0  0
   -3.0505    3.6188   -0.1682 C   0  0  0  0  0  0  0  0  0  0  0  0
   -3.8995    2.5292    0.1497 C   0  0  0  0  0  0  0  0  0  0  0  0
   -5.0235    2.8000    0.9604 C   0  0  0  0  0  0  0  0  0  0  0  0
   -5.2666    4.1069    1.4186 C   0  0  0  0  0  0  0  0  0  0  0  0
   -5.8968    1.7616    1.3084 C   0  0  0  0  0  0  0  0  0  0  0  0
   -5.6927    0.4440    0.8782 C   0  0  0  0  0  0  0  0  0  0  0  0
   -6.5946   -0.5677    1.2555 C   0  0  0  0  0  0  0  0  0  0  0  0
   -6.4237   -1.8993    0.8478 C   0  0  0  0  0  0  0  0  0  0  0  0
   -7.3248   -2.9099    1.2244 C   0  0  0  0  0  0  0  0  0  0  0  0
   -7.1345   -4.2284    0.8071 C   0  0  0  0  0  0  0  0  0  0  0  0
   -6.0410   -4.5526    0.0101 C   0  0  0  0  0  0  0  0  0  0  0  0
   -5.1388   -3.5584   -0.3706 C   0  0  0  0  0  0  0  0  0  0  0  0
   -5.3197   -2.2275    0.0410 C   0  0  0  0  0  0  0  0  0  0  0  0
   -4.4226   -1.2135   -0.3346 C   0  0  0  0  0  0  0  0  0  0  0  0
   -4.5807    0.1371    0.0679 C   0  0  0  0  0  0  0  0  0  0  0  0
   -3.6787    1.1881   -0.3009 C   0  0  0  0  0  0  0  0  0  0  0  0
   -2.4955    0.8762   -1.1586 C   0  0  0  0  0  0  0  0  0  0  0  0
   -2.6096    0.9557   -2.5841 C   0  0  0  0  0  0  0  0  0  0  0  0
   -3.7935    1.3395   -3.2628 C   0  0  0  0  0  0  0  0  0  0  0  0
   -3.8611    1.3985   -4.6564 C   0  0  0  0  0  0  0  0  0  0  0  0
   -2.7463    1.0746   -5.4151 C   0  0  0  0  0  0  0  0  0  0  0  0
   -1.5677    0.6928   -4.7783 C   0  0  0  0  0  0  0  0  0  0  0  0
   -1.4871    0.6304   -3.3763 C   0  0  0  0  0  0  0  0  0  0  0  0
   -0.2921    0.2393   -2.7608 C   0  0  0  0  0  0  0  0  0  0  0  0
   -0.1670    0.1566   -1.3679 C   0  0  0  0  0  0  0  0  0  0  0  0
    1.0494   -0.2528   -0.7909 C   0  0  0  0  0  0  0  0  0  0  0  0
    1.2402   -0.3678    0.6070 C   0  0  0  0  0  0  0  0  0  0  0  0
    2.4646   -0.7963    1.2170 C   0  0  0  0  0  0  0  0  0  0  0  0
    3.6341   -1.1536    0.3581 C   0  0  0  0  0  0  0  0  0  0  0  0
    4.5977   -0.1496    0.0167 C   0  0  0  0  0  0  0  0  0  0  0  0
    4.5190    1.1980    0.4506 C   0  0  0  0  0  0  0  0  0  0  0  0
    5.4822    2.1626    0.1085 C   0  0  0  0  0  0  0  0  0  0  0  0
    5.3856    3.4909    0.5566 C   0  0  0  0  0  0  0  0  0  0  0  0
    6.3543    4.4336    0.2099 C   0  0  0  0  0  0  0  0  0  0  0  0
    7.4297    4.0609   -0.5901 C   0  0  0  0  0  0  0  0  0  0  0  0
    7.5370    2.7453   -1.0432 C   0  0  0  0  0  0  0  0  0  0  0  0
    6.5695    1.7860   -0.7000 C   0  0  0  0  0  0  0  0  0  0  0  0
    6.6598    0.4581   -1.1422 C   0  0  0  0  0  0  0  0  0  0  0  0
    5.6946   -0.5041   -0.7953 C   0  0  0  0  0  0  0  0  0  0  0  0
    5.8227   -1.8206   -1.2561 C   0  0  0  0  0  0  0  0  0  0  0  0
    4.8900   -2.8139   -0.9333 C   0  0  0  0  0  0  0  0  0  0  0  0
    5.0604   -4.1224   -1.4185 C   0  0  0  0  0  0  0  0  0  0  0  0
    4.1480   -5.1291   -1.1103 C   0  0  0  0  0  0  0  0  0  0  0  0
    3.0517   -4.8393   -0.3122 C   0  0  0  0  0  0  0  0  0  0  0  0
    2.8715   -3.5430    0.1752 C   0  0  0  0  0  0  0  0  0  0  0  0
    3.7809   -2.4962   -0.1193 C   0  0  0  0  0  0  0  0  0  0  0  0
    2.5753   -0.8841    2.6423 C   0  0  0  0  0  0  0  0  0  0  0  0
    3.7486   -1.2996    3.3207 C   0  0  0  0  0  0  0  0  0  0  0  0
    3.8135   -1.3670    4.7142 C   0  0  0  0  0  0  0  0  0  0  0  0
    2.7054   -1.0213    5.4731 C   0  0  0  0  0  0  0  0  0  0  0  0
    1.5364   -0.6100    4.8366 C   0  0  0  0  0  0  0  0  0  0  0  0
    1.4592   -0.5387    3.4348 C   0  0  0  0  0  0  0  0  0  0  0  0
    0.2716   -0.1248    2.8198 C   0  0  0  0  0  0  0  0  0  0  0  0
    0.1480   -0.0390    1.4270 C   0  0  0  0  0  0  0  0  0  0  0  0
   -1.0677    0.3723    0.8502 C   0  0  0  0  0  0  0  0  0  0  0  0
   -1.2619    0.4764   -0.5480 C   0  0  0  0  0  0  0  0  0  0  0  0
   -4.6161    6.1609    1.4502 H   0  0  0  0  0  0  0  0  0  0  0  0
   -2.6282    5.7230    0.0287 H   0  0  0  0  0  0  0  0  0  0  0  0
   -2.1687    3.4688   -0.7891 H   0  0  0  0  0  0  0  0  0  0  0  0
   -6.1324    4.3189    2.0430 H   0  0  0  0  0  0  0  0  0  0  0  0
   -6.7602    1.9858    1.9339 H   0  0  0  0  0  0  0  0  0  0  0  0
   -7.4491   -0.3148    1.8811 H   0  0  0  0  0  0  0  0  0  0  0  0
   -8.1845   -2.6751    1.8476 H   0  0  0  0  0  0  0  0  0  0  0  0
   -7.8396   -5.0002    1.1043 H   0  0  0  0  0  0  0  0  0  0  0  0
   -5.8883   -5.5774   -0.3174 H   0  0  0  0  0  0  0  0  0  0  0  0
   -4.2895   -3.8292   -0.9944 H   0  0  0  0  0  0  0  0  0  0  0  0
   -3.5746   -1.4910   -0.9599 H   0  0  0  0  0  0  0  0  0  0  0  0
   -4.6912    1.6003   -2.7046 H   0  0  0  0  0  0  0  0  0  0  0  0
   -4.7866    1.6969   -5.1418 H   0  0  0  0  0  0  0  0  0  0  0  0
   -2.7914    1.1174   -6.4998 H   0  0  0  0  0  0  0  0  0  0  0  0
   -0.7042    0.4402   -5.3903 H   0  0  0  0  0  0  0  0  0  0  0  0
    0.5653   -0.0137   -3.3837 H   0  0  0  0  0  0  0  0  0  0  0  0
    1.8749   -0.4957   -1.4594 H   0  0  0  0  0  0  0  0  0  0  0  0
    3.6852    1.5114    1.0777 H   0  0  0  0  0  0  0  0  0  0  0  0
    4.5512    3.7995    1.1831 H   0  0  0  0  0  0  0  0  0  0  0  0
    6.2687    5.4569    0.5659 H   0  0  0  0  0  0  0  0  0  0  0  0
    8.1861    4.7924   -0.8610 H   0  0  0  0  0  0  0  0  0  0  0  0
    8.3850    2.4720   -1.6668 H   0  0  0  0  0  0  0  0  0  0  0  0
    7.5024    0.1681   -1.7682 H   0  0  0  0  0  0  0  0  0  0  0  0
    6.6746   -2.0809   -1.8834 H   0  0  0  0  0  0  0  0  0  0  0  0
    5.9146   -4.3700   -2.0456 H   0  0  0  0  0  0  0  0  0  0  0  0
    4.2961   -6.1356   -1.4922 H   0  0  0  0  0  0  0  0  0  0  0  0
    2.3339   -5.6165   -0.0637 H   0  0  0  0  0  0  0  0  0  0  0  0
    1.9987   -3.3572    0.7987 H   0  0  0  0  0  0  0  0  0  0  0  0
    4.6404   -1.5790    2.7621 H   0  0  0  0  0  0  0  0  0  0  0  0
    4.7313   -1.6890    5.1992 H   0  0  0  0  0  0  0  0  0  0  0  0
    2.7477   -1.0700    6.5577 H   0  0  0  0  0  0  0  0  0  0  0  0
    0.6770   -0.3422    5.4480 H   0  0  0  0  0  0  0  0  0  0  0  0
   -0.5833    0.1364    3.4428 H   0  0  0  0  0  0  0  0  0  0  0  0
   -1.8930    0.6160    1.5187 H   0  0  0  0  0  0  0  0  0  0  0  0
  1  2  4  0
  2  3  4  0
  3  4  4  0
  4  5  4  0
  5  6  4  0
  5  7  4  0
  7  8  4  0
  8  9  4  0
  9 10  4  0
 10 11  4  0
 11 12  4  0
 12 13  4  0
 13 14  4  0
 14 15  4  0
 15 16  4  0
 16 17  4  0
 17 18  4  0
 18 19  1  0
 19 20  4  0
 20 21  4  0
 21 22  4  0
 22 23  4  0
 23 24  4  0
 24 25  4  0
 25 26  4  0
 26 27  4  0
 27 28  4  0
 28 29  4  0
 29 30  4  0
 30 31  1  0
 31 32  4  0
 32 33  4  0
 33 34  4  0
 34 35  4  0
 35 36  4  0
 36 37  4  0
 37 38  4  0
 38 39  4  0
 39 40  4  0
 40 41  4  0
 41 42  4  0
 42 43  4  0
 43 44  4  0
 44 45  4  0
 45 46  4  0
 46 47  4  0
 47 48  4  0
 30 49  4  0
 49 50  4  0
 50 51  4  0
 51 52  4  0
 52 53  4  0
 53 54  4  0
 54 55  4  0
 55 56  4  0
 56 57  4  0
 57 58  4  0
  6  1  4  0
 17  8  4  0
 58 19  4  0
 18  4  4  0
 25 20  4  0
 58 27  4  0
 15 10  4  0
 56 29  4  0
 48 31  4  0
 54 49  4  0
 41 32  4  0
 48 43  4  0
 39 34  4  0
  1 59  1  0
  2 60  1  0
  3 61  1  0
  6 62  1  0
  7 63  1  0
  9 64  1  0
 11 65  1  0
 12 66  1  0
 13 67  1  0
 14 68  1  0
 16 69  1  0
 21 70  1  0
 22 71  1  0
 23 72  1  0
 24 73  1  0
 26 74  1  0
 28 75  1  0
 33 76  1  0
 35 77  1  0
 36 78  1  0
 37 79  1  0
 38 80  1  0
 40 81  1  0
 42 82  1  0
 44 83  1  0
 45 84  1  0
 46 85  1  0
 47 86  1  0
 50 87  1  0
 51 88  1  0
 52 89  1  0
 53 90  1  0
 55 91  1  0
 57 92  1  0
M  END
