
     RDKit          3D

 92104  0  0  0  0  0  0  0  0999 V2000
  -12.1589    2.9899    0.9352 C   0  0  0  0  0  0  0  0  0  0  0  0
  -11.5104    3.9664    0.1857 C   0  0  0  0  0  0  0  0  0  0  0  0
  -10.2090    3.7467   -0.2681 C   0  0  0  0  0  0  0  0  0  0  0  0
   -9.5395    2.5466    0.0231 C   0  0  0  0  0  0  0  0  0  0  0  0
   -8.2296    2.3104   -0.4258 C   0  0  0  0  0  0  0  0  0  0  0  0
   -7.5602    1.1104   -0.1330 C   0  0  0  0  0  0  0  0  0  0  0  0
   -6.2497    0.8755   -0.5815 C   0  0  0  0  0  0  0  0  0  0  0  0
   -5.5784   -0.3218   -0.2855 C   0  0  0  0  0  0  0  0  0  0  0  0
   -4.2664   -0.5540   -0.7312 C   0  0  0  0  0  0  0  0  0  0  0  0
   -3.5920   -1.7470   -0.4250 C   0  0  0  0  0  0  0  0  0  0  0  0
   -2.2046   -1.9684   -0.8869 C   0  0  0  0  0  0  0  0  0  0  0  0
   -1.9653   -2.6474   -2.1242 C   0  0  0  0  0  0  0  0  0  0  0  0
   -2.9930   -3.1319   -2.9725 C   0  0  0  0  0  0  0  0  0  0  0  0
   -2.7143   -3.7903   -4.1724 C   0  0  0  0  0  0  0  0  0  0  0  0
   -1.3976   -3.9845   -4.5622 C   0  0  0  0  0  0  0  0  0  0  0  0
   -0.3641   -3.5190   -3.7523 C   0  0  0  0  0  0  0  0  0  0  0  0
   -0.6322   -2.8542   -2.5428 C   0  0  0  0  0  0  0  0  0  0  0  0
    0.4249   -2.3932   -1.7493 C   0  0  0  0  0  0  0  0  0  0  0  0
    0.2054   -1.7226   -0.5392 C   0  0  0  0  0  0  0  0  0  0  0  0
    1.2975   -1.2712    0.2257 C   0  0  0  0  0  0  0  0  0  0  0  0
    1.1491   -0.5818    1.4537 C   0  0  0  0  0  0  0  0  0  0  0  0
    2.2459   -0.1088    2.2457 C   0  0  0  0  0  0  0  0  0  0  0  0
    3.6332   -0.3408    1.7882 C   0  0  0  0  0  0  0  0  0  0  0  0
    4.2675    0.5755    0.9336 C   0  0  0  0  0  0  0  0  0  0  0  0
    5.5782    0.3604    0.4748 C   0  0  0  0  0  0  0  0  0  0  0  0
    6.2114    1.2726   -0.3852 C   0  0  0  0  0  0  0  0  0  0  0  0
    7.5197    1.0554   -0.8496 C   0  0  0  0  0  0  0  0  0  0  0  0
    8.1514    1.9680   -1.7114 C   0  0  0  0  0  0  0  0  0  0  0  0
    9.4585    1.7512   -2.1777 C   0  0  0  0  0  0  0  0  0  0  0  0
   10.0899    2.6631   -3.0396 C   0  0  0  0  0  0  0  0  0  0  0  0
   11.3894    2.4336   -3.4945 C   0  0  0  0  0  0  0  0  0  0  0  0
   12.0737    1.2902   -3.0942 C   0  0  0  0  0  0  0  0  0  0  0  0
   11.4596    0.3747   -2.2380 C   0  0  0  0  0  0  0  0  0  0  0  0
   10.1523    0.5916   -1.7714 C   0  0  0  0  0  0  0  0  0  0  0  0
    9.5201   -0.3198   -0.9093 C   0  0  0  0  0  0  0  0  0  0  0  0
    8.2122   -0.1020   -0.4431 C   0  0  0  0  0  0  0  0  0  0  0  0
    7.5798   -1.0138    0.4193 C   0  0  0  0  0  0  0  0  0  0  0  0
    6.2719   -0.7974    0.8833 C   0  0  0  0  0  0  0  0  0  0  0  0
    5.6401   -1.7096    1.7423 C   0  0  0  0  0  0  0  0  0  0  0  0
    4.3357   -1.4845    2.1884 C   0  0  0  0  0  0  0  0  0  0  0  0
    2.0064    0.5862    3.4740 C   0  0  0  0  0  0  0  0  0  0  0  0
    3.0339    1.0913    4.3103 C   0  0  0  0  0  0  0  0  0  0  0  0
    2.7554    1.7648    5.5021 C   0  0  0  0  0  0  0  0  0  0  0  0
    1.4389    1.9550    5.8947 C   0  0  0  0  0  0  0  0  0  0  0  0
    0.4053    1.4721    5.0949 C   0  0  0  0  0  0  0  0  0  0  0  0
    0.6733    0.7927    3.8934 C   0  0  0  0  0  0  0  0  0  0  0  0
   -0.3839    0.3193    3.1072 C   0  0  0  0  0  0  0  0  0  0  0  0
   -0.1644   -0.3592    1.9014 C   0  0  0  0  0  0  0  0  0  0  0  0
   -1.2565   -0.8155    1.1392 C   0  0  0  0  0  0  0  0  0  0  0  0
   -1.1081   -1.5006   -0.0914 C   0  0  0  0  0  0  0  0  0  0  0  0
   -4.2553   -2.7186    0.3349 C   0  0  0  0  0  0  0  0  0  0  0  0
   -5.5617   -2.5037    0.7794 C   0  0  0  0  0  0  0  0  0  0  0  0
   -6.2340   -1.3097    0.4779 C   0  0  0  0  0  0  0  0  0  0  0  0
   -7.5455   -1.0764    0.9224 C   0  0  0  0  0  0  0  0  0  0  0  0
   -8.2164    0.1222    0.6271 C   0  0  0  0  0  0  0  0  0  0  0  0
   -9.5273    0.3568    1.0750 C   0  0  0  0  0  0  0  0  0  0  0  0
  -10.1972    1.5564    0.7834 C   0  0  0  0  0  0  0  0  0  0  0  0
  -11.5071    1.7921    1.2323 C   0  0  0  0  0  0  0  0  0  0  0  0
  -13.1724    3.1588    1.2894 H   0  0  0  0  0  0  0  0  0  0  0  0
  -12.0161    4.8998   -0.0469 H   0  0  0  0  0  0  0  0  0  0  0  0
   -9.7194    4.5223   -0.8528 H   0  0  0  0  0  0  0  0  0  0  0  0
   -7.7226    3.0743   -1.0125 H   0  0  0  0  0  0  0  0  0  0  0  0
   -5.7430    1.6386   -1.1698 H   0  0  0  0  0  0  0  0  0  0  0  0
   -3.7526    0.2037   -1.3214 H   0  0  0  0  0  0  0  0  0  0  0  0
   -4.0393   -2.9975   -2.7037 H   0  0  0  0  0  0  0  0  0  0  0  0
   -3.5289   -4.1475   -4.7970 H   0  0  0  0  0  0  0  0  0  0  0  0
   -1.1725   -4.4955   -5.4943 H   0  0  0  0  0  0  0  0  0  0  0  0
    0.6626   -3.6797   -4.0754 H   0  0  0  0  0  0  0  0  0  0  0  0
    1.4488   -2.5585   -2.0840 H   0  0  0  0  0  0  0  0  0  0  0  0
    2.3005   -1.4637   -0.1548 H   0  0  0  0  0  0  0  0  0  0  0  0
    3.7229    1.4650    0.6197 H   0  0  0  0  0  0  0  0  0  0  0  0
    5.6764    2.1671   -0.6996 H   0  0  0  0  0  0  0  0  0  0  0  0
    7.6159    2.8625   -2.0246 H   0  0  0  0  0  0  0  0  0  0  0  0
    9.5715    3.5626   -3.3640 H   0  0  0  0  0  0  0  0  0  0  0  0
   11.8655    3.1478   -4.1611 H   0  0  0  0  0  0  0  0  0  0  0  0
   13.0855    1.1093   -3.4475 H   0  0  0  0  0  0  0  0  0  0  0  0
   12.0107   -0.5132   -1.9364 H   0  0  0  0  0  0  0  0  0  0  0  0
   10.0557   -1.2140   -0.5958 H   0  0  0  0  0  0  0  0  0  0  0  0
    8.1148   -1.9081    0.7339 H   0  0  0  0  0  0  0  0  0  0  0  0
    6.1583   -2.6082    2.0701 H   0  0  0  0  0  0  0  0  0  0  0  0
    3.8644   -2.2092    2.8496 H   0  0  0  0  0  0  0  0  0  0  0  0
    4.0800    0.9651    4.0366 H   0  0  0  0  0  0  0  0  0  0  0  0
    3.5698    2.1385    6.1171 H   0  0  0  0  0  0  0  0  0  0  0  0
    1.2139    2.4786    6.8198 H   0  0  0  0  0  0  0  0  0  0  0  0
   -0.6215    1.6324    5.4182 H   0  0  0  0  0  0  0  0  0  0  0  0
   -1.4078    0.4858    3.4414 H   0  0  0  0  0  0  0  0  0  0  0  0
   -2.2594   -0.6256    1.5210 H   0  0  0  0  0  0  0  0  0  0  0  0
   -3.7527   -3.6510    0.5851 H   0  0  0  0  0  0  0  0  0  0  0  0
   -6.0494   -3.2783    1.3672 H   0  0  0  0  0  0  0  0  0  0  0  0
   -8.0519   -1.8398    1.5103 H   0  0  0  0  0  0  0  0  0  0  0  0
  -10.0351   -0.4071    1.6609 H   0  0  0  0  0  0  0  0  0  0  0  0
  -12.0312    1.0410    1.8191 H   0  0  0  0  0  0  0  0  0  0  0  0
  1  2  4  0
  2  3  4  0
  3  4  4  0
  4  5  4  0
  5  6  4  0
  6  7  4  0
  7  8  4  0
  8  9  4  0
  9 10  4  0
 10 11  1  0
 11 12  4  0
 12 13  4  0
 13 14  4  0
 14 15  4  0
 15 16  4  0
 16 17  4  0
 17 18  4  0
 18 19  4  0
 19 20  4  0
 20 21  4  0
 21 22  4  0
 22 23  1  0
 23 24  4  0
 24 25  4  0
 25 26  4  0
 26 27  4  0
 27 28  4  0
 28 29  4  0
 29 30  4  0
 30 31  4  0
 31 32  4  0
 32 33  4  0
 33 34  4  0
 34 35  4  0
 35 36  4  0
 36 37  4  0
 37 38  4  0
 38 39  4  0
 39 40  4  0
 22 41  4  0
 41 42  4  0
 42 43  4  0
 43 44  4  0
 44 45  4  0
 45 46  4  0
 46 47  4  0
 47 48  4  0
 48 49  4  0
 49 50  4  0
 10 51  4  0
 51 52  4  0
 52 53  4  0
 53 54  4  0
 54 55  4  0
 55 56  4  0
 56 57  4  0
 57 58  4  0
 58  1  4  0
 57  4  4  0
 55  6  4  0
 53  8  4  0
 50 11  4  0
 17 12  4  0
 50 19  4  0
 48 21  4  0
 40 23  4  0
 46 41  4  0
 38 25  4  0
 36 27  4  0
 34 29  4  0
  1 59  1  0
  2 60  1  0
  3 61  1  0
  5 62  1  0
  7 63  1  0
  9 64  1  0
 13 65  1  0
 14 66  1  0
 15 67  1  0
 16 68  1  0
 18 69  1  0
 20 70  1  0
 24 71  1  0
 26 72  1  0
 28 73  1  0
 30 74  1  0
 31 75  1  0
 32 76  1  0
 33 77  1  0
 35 78  1  0
 37 79  1  0
 39 80  1  0
 40 81  1  0
 42 82  1  0
 43 83  1  0
 44 84  1  0
 45 85  1  0
 47 86  1  0
 49 87  1  0
 51 88  1  0
 52 89  1  0
 54 90  1  0
 56 91  1  0
 58 92  1  0
M  END
