
     RDKit          3D

104118  0  0  0  0  0  0  0  0999 V2000
    5.1631    0.0707    6.5721 C   0  0  0  0  0  0  0  0  0  0  0  0
    3.8692    0.5782    6.5126 C   0  0  0  0  0  0  0  0  0  0  0  0
    3.3055    0.9033    5.2781 C   0  0  0  0  0  0  0  0  0  0  0  0
    4.0297    0.7247    4.0874 C   0  0  0  0  0  0  0  0  0  0  0  0
    3.4790    1.0461    2.8348 C   0  0  0  0  0  0  0  0  0  0  0  0
    4.1895    0.8748    1.6195 C   0  0  0  0  0  0  0  0  0  0  0  0
    5.4985    0.3582    1.7036 C   0  0  0  0  0  0  0  0  0  0  0  0
    6.0542    0.0359    2.9548 C   0  0  0  0  0  0  0  0  0  0  0  0
    5.3379    0.2117    4.1478 C   0  0  0  0  0  0  0  0  0  0  0  0
    5.8939   -0.1117    5.3972 C   0  0  0  0  0  0  0  0  0  0  0  0
    6.2466    0.1654    0.5351 C   0  0  0  0  0  0  0  0  0  0  0  0
    5.7342    0.4667   -0.7333 C   0  0  0  0  0  0  0  0  0  0  0  0
    6.5213    0.2516   -1.8792 C   0  0  0  0  0  0  0  0  0  0  0  0
    6.0434    0.5370   -3.1667 C   0  0  0  0  0  0  0  0  0  0  0  0
    6.8288    0.3199   -4.3117 C   0  0  0  0  0  0  0  0  0  0  0  0
    6.3328    0.6130   -5.5830 C   0  0  0  0  0  0  0  0  0  0  0  0
    5.0469    1.1249   -5.7250 C   0  0  0  0  0  0  0  0  0  0  0  0
    4.2562    1.3436   -4.5962 C   0  0  0  0  0  0  0  0  0  0  0  0
    4.7433    1.0540   -3.3108 C   0  0  0  0  0  0  0  0  0  0  0  0
    3.9618    1.2693   -2.1630 C   0  0  0  0  0  0  0  0  0  0  0  0
    4.4287    0.9849   -0.8550 C   0  0  0  0  0  0  0  0  0  0  0  0
    3.6519    1.1944    0.3304 C   0  0  0  0  0  0  0  0  0  0  0  0
    2.2688    1.7513    0.2217 C   0  0  0  0  0  0  0  0  0  0  0  0
    2.0695    3.1697    0.2520 C   0  0  0  0  0  0  0  0  0  0  0  0
    3.1195    4.1133    0.3790 C   0  0  0  0  0  0  0  0  0  0  0  0
    2.8803    5.4892    0.4010 C   0  0  0  0  0  0  0  0  0  0  0  0
    1.5817    5.9648    0.2972 C   0  0  0  0  0  0  0  0  0  0  0  0
    0.5269    5.0633    0.1730 C   0  0  0  0  0  0  0  0  0  0  0  0
    0.7555    3.6762    0.1499 C   0  0  0  0  0  0  0  0  0  0  0  0
   -0.3219    2.7909    0.0262 C   0  0  0  0  0  0  0  0  0  0  0  0
   -0.1419    1.4019   -0.0016 C   0  0  0  0  0  0  0  0  0  0  0  0
   -1.2545    0.5487   -0.1195 C   0  0  0  0  0  0  0  0  0  0  0  0
   -1.1449   -0.8620   -0.1514 C   0  0  0  0  0  0  0  0  0  0  0  0
   -2.2644   -1.7508   -0.2586 C   0  0  0  0  0  0  0  0  0  0  0  0
   -3.6495   -1.1933   -0.3353 C   0  0  0  0  0  0  0  0  0  0  0  0
   -4.3794   -0.9389    0.8713 C   0  0  0  0  0  0  0  0  0  0  0  0
   -3.8663   -1.1839    2.1704 C   0  0  0  0  0  0  0  0  0  0  0  0
   -4.6031   -0.9238    3.3388 C   0  0  0  0  0  0  0  0  0  0  0  0
   -4.0715   -1.1738    4.6150 C   0  0  0  0  0  0  0  0  0  0  0  0
   -4.8183   -0.9097    5.7639 C   0  0  0  0  0  0  0  0  0  0  0  0
   -6.1053   -0.3932    5.6516 C   0  0  0  0  0  0  0  0  0  0  0  0
   -6.6457   -0.1401    4.3899 C   0  0  0  0  0  0  0  0  0  0  0  0
   -5.9038   -0.4009    3.2251 C   0  0  0  0  0  0  0  0  0  0  0  0
   -6.4264   -0.1534    1.9474 C   0  0  0  0  0  0  0  0  0  0  0  0
   -5.6844   -0.4135    0.7811 C   0  0  0  0  0  0  0  0  0  0  0  0
   -6.2423   -0.1504   -0.4765 C   0  0  0  0  0  0  0  0  0  0  0  0
   -5.5429   -0.3926   -1.6656 C   0  0  0  0  0  0  0  0  0  0  0  0
   -6.1463   -0.1135   -2.9052 C   0  0  0  0  0  0  0  0  0  0  0  0
   -5.4801   -0.3417   -4.1182 C   0  0  0  0  0  0  0  0  0  0  0  0
   -6.0839   -0.0643   -5.3566 C   0  0  0  0  0  0  0  0  0  0  0  0
   -5.4022   -0.2987   -6.5518 C   0  0  0  0  0  0  0  0  0  0  0  0
   -4.1098   -0.8124   -6.5235 C   0  0  0  0  0  0  0  0  0  0  0  0
   -3.4994   -1.0928   -5.3003 C   0  0  0  0  0  0  0  0  0  0  0  0
   -4.1740   -0.8619   -4.0897 C   0  0  0  0  0  0  0  0  0  0  0  0
   -3.5754   -1.1389   -2.8485 C   0  0  0  0  0  0  0  0  0  0  0  0
   -4.2352   -0.9164   -1.6135 C   0  0  0  0  0  0  0  0  0  0  0  0
   -2.0662   -3.1691   -0.2856 C   0  0  0  0  0  0  0  0  0  0  0  0
   -3.1193   -4.1124   -0.3867 C   0  0  0  0  0  0  0  0  0  0  0  0
   -2.8808   -5.4882   -0.4126 C   0  0  0  0  0  0  0  0  0  0  0  0
   -1.5802   -5.9637   -0.3378 C   0  0  0  0  0  0  0  0  0  0  0  0
   -0.5227   -5.0625   -0.2357 C   0  0  0  0  0  0  0  0  0  0  0  0
   -0.7505   -3.6755   -0.2078 C   0  0  0  0  0  0  0  0  0  0  0  0
    0.3291   -2.7905   -0.1006 C   0  0  0  0  0  0  0  0  0  0  0  0
    0.1498   -1.4014   -0.0684 C   0  0  0  0  0  0  0  0  0  0  0  0
    1.2627   -0.5482    0.0499 C   0  0  0  0  0  0  0  0  0  0  0  0
    1.1521    0.8624    0.0911 C   0  0  0  0  0  0  0  0  0  0  0  0
    5.6046   -0.1838    7.5320 H   0  0  0  0  0  0  0  0  0  0  0  0
    3.2969    0.7215    7.4254 H   0  0  0  0  0  0  0  0  0  0  0  0
    2.2924    1.2990    5.2502 H   0  0  0  0  0  0  0  0  0  0  0  0
    2.4641    1.4412    2.8112 H   0  0  0  0  0  0  0  0  0  0  0  0
    7.0671   -0.3613    3.0035 H   0  0  0  0  0  0  0  0  0  0  0  0
    6.9038   -0.5098    5.4634 H   0  0  0  0  0  0  0  0  0  0  0  0
    7.2578   -0.2329    0.6153 H   0  0  0  0  0  0  0  0  0  0  0  0
    7.5285   -0.1472   -1.7681 H   0  0  0  0  0  0  0  0  0  0  0  0
    7.8361   -0.0797   -4.2201 H   0  0  0  0  0  0  0  0  0  0  0  0
    6.9512    0.4423   -6.4604 H   0  0  0  0  0  0  0  0  0  0  0  0
    4.6570    1.3557   -6.7128 H   0  0  0  0  0  0  0  0  0  0  0  0
    3.2527    1.7440   -4.7258 H   0  0  0  0  0  0  0  0  0  0  0  0
    2.9584    1.6711   -2.2985 H   0  0  0  0  0  0  0  0  0  0  0  0
    4.1529    3.7815    0.4627 H   0  0  0  0  0  0  0  0  0  0  0  0
    3.7120    6.1820    0.4980 H   0  0  0  0  0  0  0  0  0  0  0  0
    1.3875    7.0336    0.3122 H   0  0  0  0  0  0  0  0  0  0  0  0
   -0.4851    5.4551    0.0925 H   0  0  0  0  0  0  0  0  0  0  0  0
   -1.3312    3.1946   -0.0502 H   0  0  0  0  0  0  0  0  0  0  0  0
   -2.2421    1.0045   -0.1851 H   0  0  0  0  0  0  0  0  0  0  0  0
   -2.8620   -1.5904    2.2822 H   0  0  0  0  0  0  0  0  0  0  0  0
   -3.0673   -1.5785    4.7222 H   0  0  0  0  0  0  0  0  0  0  0  0
   -4.3935   -1.1079    6.7444 H   0  0  0  0  0  0  0  0  0  0  0  0
   -6.6893   -0.1870    6.5446 H   0  0  0  0  0  0  0  0  0  0  0  0
   -7.6536    0.2631    4.3220 H   0  0  0  0  0  0  0  0  0  0  0  0
   -7.4339    0.2507    1.8605 H   0  0  0  0  0  0  0  0  0  0  0  0
   -7.2521    0.2553   -0.5314 H   0  0  0  0  0  0  0  0  0  0  0  0
   -7.1580    0.2891   -2.9286 H   0  0  0  0  0  0  0  0  0  0  0  0
   -7.0938    0.3371   -5.3982 H   0  0  0  0  0  0  0  0  0  0  0  0
   -5.8809   -0.0800   -7.5026 H   0  0  0  0  0  0  0  0  0  0  0  0
   -3.5739   -0.9955   -7.4512 H   0  0  0  0  0  0  0  0  0  0  0  0
   -2.4880   -1.4943   -5.2958 H   0  0  0  0  0  0  0  0  0  0  0  0
   -2.5632   -1.5416   -2.8498 H   0  0  0  0  0  0  0  0  0  0  0  0
   -4.1542   -3.7805   -0.4482 H   0  0  0  0  0  0  0  0  0  0  0  0
   -3.7140   -6.1812   -0.4921 H   0  0  0  0  0  0  0  0  0  0  0  0
   -1.3869   -7.0326   -0.3592 H   0  0  0  0  0  0  0  0  0  0  0  0
    0.4908   -5.4544   -0.1780 H   0  0  0  0  0  0  0  0  0  0  0  0
    1.3393   -3.1945   -0.0390 H   0  0  0  0  0  0  0  0  0  0  0  0
    2.2502   -1.0038    0.1159 H   0  0  0  0  0  0  0  0  0  0  0  0
  1  2  4  0
  2  3  4  0
  3  4  4  0
  4  5  4  0
  5  6  4  0
  6  7  4  0
  7  8  4  0
  8  9  4  0
  9 10  4  0
  7 11  4  0
 11 12  4  0
 12 13  4  0
 13 14  4  0
 14 15  4  0
 15 16  4  0
 16 17  4  0
 17 18  4  0
 18 19  4  0
 19 20  4  0
 20 21  4  0
 21 22  4  0
 22 23  1  0
 23 24  4  0
 24 25  4  0
 25 26  4  0
 26 27  4  0
 27 28  4  0
 28 29  4  0
 29 30  4  0
 30 31  4  0
 31 32  4  0
 32 33  4  0
 33 34  4  0
 34 35  1  0
 35 36  4  0
 36 37  4  0
 37 38  4  0
 38 39  4  0
 39 40  4  0
 40 41  4  0
 41 42  4  0
 42 43  4  0
 43 44  4  0
 44 45  4  0
 45 46  4  0
 46 47  4  0
 47 48  4  0
 48 49  4  0
 49 50  4  0
 50 51  4  0
 51 52  4  0
 52 53  4  0
 53 54  4  0
 54 55  4  0
 55 56  4  0
 34 57  4  0
 57 58  4  0
 58 59  4  0
 59 60  4  0
 60 61  4  0
 61 62  4  0
 62 63  4  0
 63 64  4  0
 64 65  4  0
 65 66  4  0
 10  1  4  0
 21 12  4  0
 66 23  4  0
  9  4  4  0
 19 14  4  0
 29 24  4  0
 66 31  4  0
 22  6  4  0
 64 33  4  0
 56 35  4  0
 62 57  4  0
 45 36  4  0
 56 47  4  0
 43 38  4  0
 54 49  4  0
  1 67  1  0
  2 68  1  0
  3 69  1  0
  5 70  1  0
  8 71  1  0
 10 72  1  0
 11 73  1  0
 13 74  1  0
 15 75  1  0
 16 76  1  0
 17 77  1  0
 18 78  1  0
 20 79  1  0
 25 80  1  0
 26 81  1  0
 27 82  1  0
 28 83  1  0
 30 84  1  0
 32 85  1  0
 37 86  1  0
 39 87  1  0
 40 88  1  0
 41 89  1  0
 42 90  1  0
 44 91  1  0
 46 92  1  0
 48 93  1  0
 50 94  1  0
 51 95  1  0
 52 96  1  0
 53 97  1  0
 55 98  1  0
 58 99  1  0
 59100  1  0
 60101  1  0
 61102  1  0
 63103  1  0
 65104  1  0
M  END
