
     RDKit          3D

104118  0  0  0  0  0  0  0  0999 V2000
   11.6750    1.5939    3.9359 C   0  0  0  0  0  0  0  0  0  0  0  0
   10.8435    0.9889    4.8733 C   0  0  0  0  0  0  0  0  0  0  0  0
    9.6035    0.4827    4.4811 C   0  0  0  0  0  0  0  0  0  0  0  0
    9.1796    0.5761    3.1453 C   0  0  0  0  0  0  0  0  0  0  0  0
    7.9346    0.0725    2.7354 C   0  0  0  0  0  0  0  0  0  0  0  0
    7.5104    0.1683    1.3997 C   0  0  0  0  0  0  0  0  0  0  0  0
    6.2636   -0.3324    0.9914 C   0  0  0  0  0  0  0  0  0  0  0  0
    5.8344   -0.2321   -0.3423 C   0  0  0  0  0  0  0  0  0  0  0  0
    4.5825   -0.7242   -0.7482 C   0  0  0  0  0  0  0  0  0  0  0  0
    4.1270   -0.6264   -2.0838 C   0  0  0  0  0  0  0  0  0  0  0  0
    4.9865   -0.0172   -3.0285 C   0  0  0  0  0  0  0  0  0  0  0  0
    6.2392    0.4731   -2.6226 C   0  0  0  0  0  0  0  0  0  0  0  0
    6.6727    0.3768   -1.2911 C   0  0  0  0  0  0  0  0  0  0  0  0
    7.9223    0.8756   -0.8850 C   0  0  0  0  0  0  0  0  0  0  0  0
    8.3508    0.7806    0.4499 C   0  0  0  0  0  0  0  0  0  0  0  0
    9.5974    1.2837    0.8588 C   0  0  0  0  0  0  0  0  0  0  0  0
   10.0225    1.1900    2.1944 C   0  0  0  0  0  0  0  0  0  0  0  0
   11.2676    1.6941    2.6048 C   0  0  0  0  0  0  0  0  0  0  0  0
    4.5835    0.0995   -4.3676 C   0  0  0  0  0  0  0  0  0  0  0  0
    3.3426   -0.3717   -4.7864 C   0  0  0  0  0  0  0  0  0  0  0  0
    2.4846   -0.9650   -3.8675 C   0  0  0  0  0  0  0  0  0  0  0  0
    2.8543   -1.1018   -2.5158 C   0  0  0  0  0  0  0  0  0  0  0  0
    1.8809   -1.7282   -1.5826 C   0  0  0  0  0  0  0  0  0  0  0  0
    1.8546   -3.1509   -1.4283 C   0  0  0  0  0  0  0  0  0  0  0  0
    2.7316   -4.0349   -2.1052 C   0  0  0  0  0  0  0  0  0  0  0  0
    2.6717   -5.4188   -1.9260 C   0  0  0  0  0  0  0  0  0  0  0  0
    1.7321   -5.9620   -1.0626 C   0  0  0  0  0  0  0  0  0  0  0  0
    0.8575   -5.1201   -0.3791 C   0  0  0  0  0  0  0  0  0  0  0  0
    0.9095   -3.7254   -0.5499 C   0  0  0  0  0  0  0  0  0  0  0  0
    0.0238   -2.9003    0.1538 C   0  0  0  0  0  0  0  0  0  0  0  0
    0.0448   -1.5058    0.0211 C   0  0  0  0  0  0  0  0  0  0  0  0
   -0.8571   -0.7117    0.7548 C   0  0  0  0  0  0  0  0  0  0  0  0
   -0.8844    0.7017    0.6740 C   0  0  0  0  0  0  0  0  0  0  0  0
   -1.7905    1.5318    1.4122 C   0  0  0  0  0  0  0  0  0  0  0  0
   -2.7659    0.9101    2.3461 C   0  0  0  0  0  0  0  0  0  0  0  0
   -2.3734    0.7253    3.6859 C   0  0  0  0  0  0  0  0  0  0  0  0
   -3.2343    0.1441    4.6094 C   0  0  0  0  0  0  0  0  0  0  0  0
   -4.5030   -0.2630    4.2080 C   0  0  0  0  0  0  0  0  0  0  0  0
   -4.9305   -0.0949    2.8820 C   0  0  0  0  0  0  0  0  0  0  0  0
   -6.2154   -0.5133    2.4977 C   0  0  0  0  0  0  0  0  0  0  0  0
   -6.6786   -0.3599    1.1819 C   0  0  0  0  0  0  0  0  0  0  0  0
   -7.9649   -0.7796    0.8018 C   0  0  0  0  0  0  0  0  0  0  0  0
   -8.4276   -0.6245   -0.5157 C   0  0  0  0  0  0  0  0  0  0  0  0
   -9.7135   -1.0454   -0.8955 C   0  0  0  0  0  0  0  0  0  0  0  0
  -10.1760   -0.8902   -2.2128 C   0  0  0  0  0  0  0  0  0  0  0  0
  -11.4612   -1.3111   -2.5934 C   0  0  0  0  0  0  0  0  0  0  0  0
  -11.9060   -1.1499   -3.9065 C   0  0  0  0  0  0  0  0  0  0  0  0
  -11.0725   -0.5661   -4.8554 C   0  0  0  0  0  0  0  0  0  0  0  0
   -9.7930   -0.1428   -4.4926 C   0  0  0  0  0  0  0  0  0  0  0  0
   -9.3307   -0.2983   -3.1751 C   0  0  0  0  0  0  0  0  0  0  0  0
   -8.0454    0.1221   -2.7939 C   0  0  0  0  0  0  0  0  0  0  0  0
   -7.5835   -0.0343   -1.4759 C   0  0  0  0  0  0  0  0  0  0  0  0
   -6.2976    0.3848   -1.0937 C   0  0  0  0  0  0  0  0  0  0  0  0
   -5.8351    0.2278    0.2243 C   0  0  0  0  0  0  0  0  0  0  0  0
   -4.5482    0.6448    0.6081 C   0  0  0  0  0  0  0  0  0  0  0  0
   -4.0659    0.4968    1.9306 C   0  0  0  0  0  0  0  0  0  0  0  0
   -1.7524    2.9559    1.2665 C   0  0  0  0  0  0  0  0  0  0  0  0
   -2.6198    3.8448    1.9499 C   0  0  0  0  0  0  0  0  0  0  0  0
   -2.5460    5.2293    1.7792 C   0  0  0  0  0  0  0  0  0  0  0  0
   -1.6005    5.7687    0.9196 C   0  0  0  0  0  0  0  0  0  0  0  0
   -0.7341    4.9224    0.2312 C   0  0  0  0  0  0  0  0  0  0  0  0
   -0.8015    3.5275    0.3925 C   0  0  0  0  0  0  0  0  0  0  0  0
    0.0768    2.6998   -0.3161 C   0  0  0  0  0  0  0  0  0  0  0  0
    0.0446    1.3053   -0.1906 C   0  0  0  0  0  0  0  0  0  0  0  0
    0.9425    0.5115   -0.9277 C   0  0  0  0  0  0  0  0  0  0  0  0
    0.9710   -0.9013   -0.8458 C   0  0  0  0  0  0  0  0  0  0  0  0
   12.6411    1.9886    4.2394 H   0  0  0  0  0  0  0  0  0  0  0  0
   11.1589    0.9099    5.9104 H   0  0  0  0  0  0  0  0  0  0  0  0
    8.9674    0.0131    5.2280 H   0  0  0  0  0  0  0  0  0  0  0  0
    7.2830   -0.4014    3.4677 H   0  0  0  0  0  0  0  0  0  0  0  0
    5.6136   -0.8063    1.7250 H   0  0  0  0  0  0  0  0  0  0  0  0
    3.9453   -1.1931    0.0006 H   0  0  0  0  0  0  0  0  0  0  0  0
    6.8906    0.9430   -3.3577 H   0  0  0  0  0  0  0  0  0  0  0  0
    8.5715    1.3480   -1.6199 H   0  0  0  0  0  0  0  0  0  0  0  0
   10.2477    1.7572    0.1257 H   0  0  0  0  0  0  0  0  0  0  0  0
   11.9314    2.1706    1.8868 H   0  0  0  0  0  0  0  0  0  0  0  0
    5.2396    0.5641   -5.1012 H   0  0  0  0  0  0  0  0  0  0  0  0
    3.0443   -0.2740   -5.8269 H   0  0  0  0  0  0  0  0  0  0  0  0
    1.5132   -1.3252   -4.2027 H   0  0  0  0  0  0  0  0  0  0  0  0
    3.4869   -3.6480   -2.7870 H   0  0  0  0  0  0  0  0  0  0  0  0
    3.3617   -6.0653   -2.4617 H   0  0  0  0  0  0  0  0  0  0  0  0
    1.6792   -7.0376   -0.9181 H   0  0  0  0  0  0  0  0  0  0  0  0
    0.1288   -5.5649    0.2958 H   0  0  0  0  0  0  0  0  0  0  0  0
   -0.7006   -3.3562    0.8282 H   0  0  0  0  0  0  0  0  0  0  0  0
   -1.5642   -1.2172    1.4123 H   0  0  0  0  0  0  0  0  0  0  0  0
   -1.3823    1.0406    4.0085 H   0  0  0  0  0  0  0  0  0  0  0  0
   -2.9175    0.0084    5.6401 H   0  0  0  0  0  0  0  0  0  0  0  0
   -5.1627   -0.7157    4.9459 H   0  0  0  0  0  0  0  0  0  0  0  0
   -6.8708   -0.9681    3.2388 H   0  0  0  0  0  0  0  0  0  0  0  0
   -8.6172   -1.2352    1.5445 H   0  0  0  0  0  0  0  0  0  0  0  0
  -10.3658   -1.5018   -0.1534 H   0  0  0  0  0  0  0  0  0  0  0  0
  -12.1275   -1.7697   -1.8662 H   0  0  0  0  0  0  0  0  0  0  0  0
  -12.9027   -1.4804   -4.1868 H   0  0  0  0  0  0  0  0  0  0  0  0
  -11.4166   -0.4396   -5.8785 H   0  0  0  0  0  0  0  0  0  0  0  0
   -9.1559    0.3111   -5.2483 H   0  0  0  0  0  0  0  0  0  0  0  0
   -7.3931    0.5784   -3.5363 H   0  0  0  0  0  0  0  0  0  0  0  0
   -5.6443    0.8420   -1.8350 H   0  0  0  0  0  0  0  0  0  0  0  0
   -3.9067    1.0988   -0.1462 H   0  0  0  0  0  0  0  0  0  0  0  0
   -3.3779    3.4614    2.6307 H   0  0  0  0  0  0  0  0  0  0  0  0
   -3.2300    5.8796    2.3187 H   0  0  0  0  0  0  0  0  0  0  0  0
   -1.5372    6.8448    0.7819 H   0  0  0  0  0  0  0  0  0  0  0  0
    0.0007    5.3620   -0.4407 H   0  0  0  0  0  0  0  0  0  0  0  0
    0.8076    3.1534   -0.9853 H   0  0  0  0  0  0  0  0  0  0  0  0
    1.6492    1.0176   -1.5851 H   0  0  0  0  0  0  0  0  0  0  0  0
  1  2  4  0
  2  3  4  0
  3  4  4  0
  4  5  4  0
  5  6  4  0
  6  7  4  0
  7  8  4  0
  8  9  4  0
  9 10  4  0
 10 11  4  0
 11 12  4  0
 12 13  4  0
 13 14  4  0
 14 15  4  0
 15 16  4  0
 16 17  4  0
 17 18  4  0
 11 19  4  0
 19 20  4  0
 20 21  4  0
 21 22  4  0
 22 23  1  0
 23 24  4  0
 24 25  4  0
 25 26  4  0
 26 27  4  0
 27 28  4  0
 28 29  4  0
 29 30  4  0
 30 31  4  0
 31 32  4  0
 32 33  4  0
 33 34  4  0
 34 35  1  0
 35 36  4  0
 36 37  4  0
 37 38  4  0
 38 39  4  0
 39 40  4  0
 40 41  4  0
 41 42  4  0
 42 43  4  0
 43 44  4  0
 44 45  4  0
 45 46  4  0
 46 47  4  0
 47 48  4  0
 48 49  4  0
 49 50  4  0
 50 51  4  0
 51 52  4  0
 52 53  4  0
 53 54  4  0
 54 55  4  0
 55 56  4  0
 34 57  4  0
 57 58  4  0
 58 59  4  0
 59 60  4  0
 60 61  4  0
 61 62  4  0
 62 63  4  0
 63 64  4  0
 64 65  4  0
 65 66  4  0
 18  1  4  0
 66 23  4  0
 17  4  4  0
 29 24  4  0
 66 31  4  0
 15  6  4  0
 64 33  4  0
 13  8  4  0
 56 35  4  0
 62 57  4  0
 22 10  4  0
 56 39  4  0
 54 41  4  0
 52 43  4  0
 50 45  4  0
  1 67  1  0
  2 68  1  0
  3 69  1  0
  5 70  1  0
  7 71  1  0
  9 72  1  0
 12 73  1  0
 14 74  1  0
 16 75  1  0
 18 76  1  0
 19 77  1  0
 20 78  1  0
 21 79  1  0
 25 80  1  0
 26 81  1  0
 27 82  1  0
 28 83  1  0
 30 84  1  0
 32 85  1  0
 36 86  1  0
 37 87  1  0
 38 88  1  0
 40 89  1  0
 42 90  1  0
 44 91  1  0
 46 92  1  0
 47 93  1  0
 48 94  1  0
 49 95  1  0
 51 96  1  0
 53 97  1  0
 55 98  1  0
 58 99  1  0
 59100  1  0
 60101  1  0
 61102  1  0
 63103  1  0
 65104  1  0
M  END
