
     RDKit          3D

104118  0  0  0  0  0  0  0  0999 V2000
   -2.1957    8.4226   -1.5270 C   0  0  0  0  0  0  0  0  0  0  0  0
   -1.9994    7.5824   -2.6180 C   0  0  0  0  0  0  0  0  0  0  0  0
   -2.0353    6.1974   -2.4451 C   0  0  0  0  0  0  0  0  0  0  0  0
   -2.2677    5.6342   -1.1780 C   0  0  0  0  0  0  0  0  0  0  0  0
   -2.3071    4.2398   -0.9826 C   0  0  0  0  0  0  0  0  0  0  0  0
   -2.5383    3.6421    0.2841 C   0  0  0  0  0  0  0  0  0  0  0  0
   -2.7336    4.5264    1.3731 C   0  0  0  0  0  0  0  0  0  0  0  0
   -2.6961    5.9189    1.1837 C   0  0  0  0  0  0  0  0  0  0  0  0
   -2.4655    6.4853   -0.0769 C   0  0  0  0  0  0  0  0  0  0  0  0
   -2.4275    7.8778   -0.2634 C   0  0  0  0  0  0  0  0  0  0  0  0
   -2.9664    4.0162    2.6524 C   0  0  0  0  0  0  0  0  0  0  0  0
   -3.0088    2.6437    2.8769 C   0  0  0  0  0  0  0  0  0  0  0  0
   -2.8202    1.7399    1.8287 C   0  0  0  0  0  0  0  0  0  0  0  0
   -2.8677    0.3599    2.0925 C   0  0  0  0  0  0  0  0  0  0  0  0
   -2.6870   -0.5908    1.0794 C   0  0  0  0  0  0  0  0  0  0  0  0
   -2.7291   -1.9703    1.3480 C   0  0  0  0  0  0  0  0  0  0  0  0
   -2.5409   -2.9183    0.3296 C   0  0  0  0  0  0  0  0  0  0  0  0
   -2.5387   -4.3659    0.6373 C   0  0  0  0  0  0  0  0  0  0  0  0
   -3.7617   -5.1069    0.6197 C   0  0  0  0  0  0  0  0  0  0  0  0
   -5.0243   -4.5384    0.3172 C   0  0  0  0  0  0  0  0  0  0  0  0
   -6.1958   -5.2990    0.3108 C   0  0  0  0  0  0  0  0  0  0  0  0
   -6.1406   -6.6529    0.6067 C   0  0  0  0  0  0  0  0  0  0  0  0
   -4.9147   -7.2427    0.9077 C   0  0  0  0  0  0  0  0  0  0  0  0
   -3.7283   -6.4880    0.9173 C   0  0  0  0  0  0  0  0  0  0  0  0
   -2.5080   -7.1053    1.2214 C   0  0  0  0  0  0  0  0  0  0  0  0
   -1.3019   -6.3922    1.2408 C   0  0  0  0  0  0  0  0  0  0  0  0
   -0.0944   -7.0432    1.5475 C   0  0  0  0  0  0  0  0  0  0  0  0
    1.1360   -6.3641    1.5716 C   0  0  0  0  0  0  0  0  0  0  0  0
    2.3194   -7.0489    1.8785 C   0  0  0  0  0  0  0  0  0  0  0  0
    3.5629   -6.4040    1.9043 C   0  0  0  0  0  0  0  0  0  0  0  0
    4.7259   -7.1305    2.2155 C   0  0  0  0  0  0  0  0  0  0  0  0
    5.9750   -6.5136    2.2415 C   0  0  0  0  0  0  0  0  0  0  0  0
    6.0776   -5.1605    1.9544 C   0  0  0  0  0  0  0  0  0  0  0  0
    4.9298   -4.4277    1.6444 C   0  0  0  0  0  0  0  0  0  0  0  0
    3.6441   -5.0237    1.6132 C   0  0  0  0  0  0  0  0  0  0  0  0
    2.4439   -4.3111    1.3027 C   0  0  0  0  0  0  0  0  0  0  0  0
    2.4983   -2.8668    0.9867 C   0  0  0  0  0  0  0  0  0  0  0  0
    2.4552   -1.9071    2.0050 C   0  0  0  0  0  0  0  0  0  0  0  0
    2.4686   -0.5446    1.6967 C   0  0  0  0  0  0  0  0  0  0  0  0
    2.5209   -0.1088    0.3627 C   0  0  0  0  0  0  0  0  0  0  0  0
    2.5262    1.2596    0.0313 C   0  0  0  0  0  0  0  0  0  0  0  0
    2.5739    1.7310   -1.3067 C   0  0  0  0  0  0  0  0  0  0  0  0
    2.6142    0.7450   -2.3225 C   0  0  0  0  0  0  0  0  0  0  0  0
    2.6112   -0.6221   -1.9969 C   0  0  0  0  0  0  0  0  0  0  0  0
    2.5663   -1.0622   -0.6679 C   0  0  0  0  0  0  0  0  0  0  0  0
    2.5597   -2.4304   -0.3465 C   0  0  0  0  0  0  0  0  0  0  0  0
    2.6574    1.1278   -3.6649 C   0  0  0  0  0  0  0  0  0  0  0  0
    2.6647    2.4722   -4.0236 C   0  0  0  0  0  0  0  0  0  0  0  0
    2.6293    3.4740   -3.0507 C   0  0  0  0  0  0  0  0  0  0  0  0
    2.6408    4.8223   -3.4492 C   0  0  0  0  0  0  0  0  0  0  0  0
    2.6087    5.8670   -2.5160 C   0  0  0  0  0  0  0  0  0  0  0  0
    2.6219    7.2143   -2.9162 C   0  0  0  0  0  0  0  0  0  0  0  0
    2.5904    8.2397   -1.9703 C   0  0  0  0  0  0  0  0  0  0  0  0
    2.5448    7.9308   -0.6148 C   0  0  0  0  0  0  0  0  0  0  0  0
    2.5308    6.5965   -0.2053 C   0  0  0  0  0  0  0  0  0  0  0  0
    2.5626    5.5529   -1.1466 C   0  0  0  0  0  0  0  0  0  0  0  0
    2.5502    4.2008   -0.7530 C   0  0  0  0  0  0  0  0  0  0  0  0
    2.5832    3.1254   -1.6787 C   0  0  0  0  0  0  0  0  0  0  0  0
    1.1821   -4.9897    1.2846 C   0  0  0  0  0  0  0  0  0  0  0  0
   -0.0497   -4.3531    0.9879 C   0  0  0  0  0  0  0  0  0  0  0  0
   -1.3017   -5.0175    0.9510 C   0  0  0  0  0  0  0  0  0  0  0  0
   -2.3169   -2.4639   -0.9758 C   0  0  0  0  0  0  0  0  0  0  0  0
   -2.2714   -1.0956   -1.2532 C   0  0  0  0  0  0  0  0  0  0  0  0
   -2.4530   -0.1478   -0.2330 C   0  0  0  0  0  0  0  0  0  0  0  0
   -2.4041    1.2355   -0.4917 C   0  0  0  0  0  0  0  0  0  0  0  0
   -2.5833    2.2182    0.5169 C   0  0  0  0  0  0  0  0  0  0  0  0
   -2.1683    9.5013   -1.6574 H   0  0  0  0  0  0  0  0  0  0  0  0
   -1.8181    8.0029   -3.6037 H   0  0  0  0  0  0  0  0  0  0  0  0
   -1.8794    5.5572   -3.3105 H   0  0  0  0  0  0  0  0  0  0  0  0
   -2.1501    3.6111   -1.8547 H   0  0  0  0  0  0  0  0  0  0  0  0
   -2.8492    6.5782    2.0368 H   0  0  0  0  0  0  0  0  0  0  0  0
   -2.5786    8.5494    0.5787 H   0  0  0  0  0  0  0  0  0  0  0  0
   -3.1181    4.6857    3.4967 H   0  0  0  0  0  0  0  0  0  0  0  0
   -3.1926    2.2881    3.8888 H   0  0  0  0  0  0  0  0  0  0  0  0
   -3.0492    0.0165    3.1100 H   0  0  0  0  0  0  0  0  0  0  0  0
   -2.8977   -2.3184    2.3660 H   0  0  0  0  0  0  0  0  0  0  0  0
   -5.1097   -3.4796    0.0786 H   0  0  0  0  0  0  0  0  0  0  0  0
   -7.1465   -4.8285    0.0739 H   0  0  0  0  0  0  0  0  0  0  0  0
   -7.0479   -7.2509    0.6032 H   0  0  0  0  0  0  0  0  0  0  0  0
   -4.8924   -8.3063    1.1365 H   0  0  0  0  0  0  0  0  0  0  0  0
   -2.4967   -8.1707    1.4481 H   0  0  0  0  0  0  0  0  0  0  0  0
   -0.1124   -8.1094    1.7708 H   0  0  0  0  0  0  0  0  0  0  0  0
    2.2720   -8.1142    2.1013 H   0  0  0  0  0  0  0  0  0  0  0  0
    4.6665   -8.1934    2.4412 H   0  0  0  0  0  0  0  0  0  0  0  0
    6.8637   -7.0902    2.4837 H   0  0  0  0  0  0  0  0  0  0  0  0
    7.0468   -4.6690    1.9690 H   0  0  0  0  0  0  0  0  0  0  0  0
    5.0529   -3.3690    1.4220 H   0  0  0  0  0  0  0  0  0  0  0  0
    2.4011   -2.2190    3.0461 H   0  0  0  0  0  0  0  0  0  0  0  0
    2.4310    0.1764    2.5102 H   0  0  0  0  0  0  0  0  0  0  0  0
    2.4888    1.9705    0.8522 H   0  0  0  0  0  0  0  0  0  0  0  0
    2.6430   -1.3620   -2.7955 H   0  0  0  0  0  0  0  0  0  0  0  0
    2.5865   -3.1736   -1.1421 H   0  0  0  0  0  0  0  0  0  0  0  0
    2.6871    0.3791   -4.4540 H   0  0  0  0  0  0  0  0  0  0  0  0
    2.6997    2.7278   -5.0808 H   0  0  0  0  0  0  0  0  0  0  0  0
    2.6766    5.0651   -4.5102 H   0  0  0  0  0  0  0  0  0  0  0  0
    2.6574    7.4741   -3.9718 H   0  0  0  0  0  0  0  0  0  0  0  0
    2.6013    9.2775   -2.2930 H   0  0  0  0  0  0  0  0  0  0  0  0
    2.5201    8.7267    0.1249 H   0  0  0  0  0  0  0  0  0  0  0  0
    2.4949    6.3755    0.8592 H   0  0  0  0  0  0  0  0  0  0  0  0
    2.5150    3.9939    0.3130 H   0  0  0  0  0  0  0  0  0  0  0  0
   -0.0329   -3.2853    0.7732 H   0  0  0  0  0  0  0  0  0  0  0  0
   -2.1623   -3.1778   -1.7823 H   0  0  0  0  0  0  0  0  0  0  0  0
   -2.0848   -0.7749   -2.2756 H   0  0  0  0  0  0  0  0  0  0  0  0
   -2.2181    1.5434   -1.5171 H   0  0  0  0  0  0  0  0  0  0  0  0
  1  2  4  0
  2  3  4  0
  3  4  4  0
  4  5  4  0
  5  6  4  0
  6  7  4  0
  7  8  4  0
  8  9  4  0
  9 10  4  0
  7 11  4  0
 11 12  4  0
 12 13  4  0
 13 14  4  0
 14 15  4  0
 15 16  4  0
 16 17  4  0
 17 18  1  0
 18 19  4  0
 19 20  4  0
 20 21  4  0
 21 22  4  0
 22 23  4  0
 23 24  4  0
 24 25  4  0
 25 26  4  0
 26 27  4  0
 27 28  4  0
 28 29  4  0
 29 30  4  0
 30 31  4  0
 31 32  4  0
 32 33  4  0
 33 34  4  0
 34 35  4  0
 35 36  4  0
 36 37  1  0
 37 38  4  0
 38 39  4  0
 39 40  4  0
 40 41  4  0
 41 42  4  0
 42 43  4  0
 43 44  4  0
 44 45  4  0
 45 46  4  0
 43 47  4  0
 47 48  4  0
 48 49  4  0
 49 50  4  0
 50 51  4  0
 51 52  4  0
 52 53  4  0
 53 54  4  0
 54 55  4  0
 55 56  4  0
 56 57  4  0
 57 58  4  0
 36 59  4  0
 59 60  4  0
 60 61  4  0
 17 62  4  0
 62 63  4  0
 63 64  4  0
 64 65  4  0
 65 66  4  0
 10  1  4  0
 66 13  4  0
  9  4  4  0
 64 15  4  0
 66  6  4  0
 61 18  4  0
 24 19  4  0
 61 26  4  0
 59 28  4  0
 35 30  4  0
 46 37  4  0
 58 49  4  0
 45 40  4  0
 56 51  4  0
 58 42  4  0
  1 67  1  0
  2 68  1  0
  3 69  1  0
  5 70  1  0
  8 71  1  0
 10 72  1  0
 11 73  1  0
 12 74  1  0
 14 75  1  0
 16 76  1  0
 20 77  1  0
 21 78  1  0
 22 79  1  0
 23 80  1  0
 25 81  1  0
 27 82  1  0
 29 83  1  0
 31 84  1  0
 32 85  1  0
 33 86  1  0
 34 87  1  0
 38 88  1  0
 39 89  1  0
 41 90  1  0
 44 91  1  0
 46 92  1  0
 47 93  1  0
 48 94  1  0
 50 95  1  0
 52 96  1  0
 53 97  1  0
 54 98  1  0
 55 99  1  0
 57100  1  0
 60101  1  0
 62102  1  0
 63103  1  0
 65104  1  0
M  END
