
     RDKit          3D

104118  0  0  0  0  0  0  0  0999 V2000
   -1.2290    3.5848   -5.4615 C   0  0  0  0  0  0  0  0  0  0  0  0
   -1.2899    2.1955   -5.4385 C   0  0  0  0  0  0  0  0  0  0  0  0
   -0.5976    1.4849   -4.4561 C   0  0  0  0  0  0  0  0  0  0  0  0
    0.1641    2.1542   -3.4827 C   0  0  0  0  0  0  0  0  0  0  0  0
    0.8704    1.4535   -2.4858 C   0  0  0  0  0  0  0  0  0  0  0  0
    1.6464    2.0995   -1.4892 C   0  0  0  0  0  0  0  0  0  0  0  0
    1.6788    3.5153   -1.5342 C   0  0  0  0  0  0  0  0  0  0  0  0
    0.9793    4.2201   -2.5302 C   0  0  0  0  0  0  0  0  0  0  0  0
    0.2222    3.5586   -3.5060 C   0  0  0  0  0  0  0  0  0  0  0  0
   -0.4775    4.2632   -4.5012 C   0  0  0  0  0  0  0  0  0  0  0  0
    2.4130    4.2254   -0.5819 C   0  0  0  0  0  0  0  0  0  0  0  0
    3.1167    3.5592    0.4161 C   0  0  0  0  0  0  0  0  0  0  0  0
    3.1131    2.1635    0.4869 C   0  0  0  0  0  0  0  0  0  0  0  0
    3.8416    1.5236    1.5017 C   0  0  0  0  0  0  0  0  0  0  0  0
    3.8876    0.1279    1.6176 C   0  0  0  0  0  0  0  0  0  0  0  0
    4.6308   -0.4697    2.6478 C   0  0  0  0  0  0  0  0  0  0  0  0
    4.6884   -1.8531    2.7802 C   0  0  0  0  0  0  0  0  0  0  0  0
    3.9991   -2.6582    1.8821 C   0  0  0  0  0  0  0  0  0  0  0  0
    3.2433   -2.0933    0.8357 C   0  0  0  0  0  0  0  0  0  0  0  0
    2.5051   -3.0200   -0.0651 C   0  0  0  0  0  0  0  0  0  0  0  0
    3.1687   -3.6172   -1.1823 C   0  0  0  0  0  0  0  0  0  0  0  0
    4.5172   -3.3555   -1.5295 C   0  0  0  0  0  0  0  0  0  0  0  0
    5.1310   -3.9661   -2.6254 C   0  0  0  0  0  0  0  0  0  0  0  0
    4.4135   -4.8575   -3.4094 C   0  0  0  0  0  0  0  0  0  0  0  0
    3.0830   -5.1310   -3.0990 C   0  0  0  0  0  0  0  0  0  0  0  0
    2.4529   -4.5207   -2.0001 C   0  0  0  0  0  0  0  0  0  0  0  0
    1.1109   -4.8051   -1.7152 C   0  0  0  0  0  0  0  0  0  0  0  0
    0.4428   -4.2143   -0.6346 C   0  0  0  0  0  0  0  0  0  0  0  0
   -0.9107   -4.5031   -0.3883 C   0  0  0  0  0  0  0  0  0  0  0  0
   -1.6189   -3.9103    0.6714 C   0  0  0  0  0  0  0  0  0  0  0  0
   -2.9769   -4.1940    0.8666 C   0  0  0  0  0  0  0  0  0  0  0  0
   -3.7172   -3.5956    1.8946 C   0  0  0  0  0  0  0  0  0  0  0  0
   -5.0838   -3.8905    2.0390 C   0  0  0  0  0  0  0  0  0  0  0  0
   -5.8458   -3.2980    3.0437 C   0  0  0  0  0  0  0  0  0  0  0  0
   -5.2499   -2.4018    3.9186 C   0  0  0  0  0  0  0  0  0  0  0  0
   -3.8926   -2.1016    3.7867 C   0  0  0  0  0  0  0  0  0  0  0  0
   -3.0897   -2.6879    2.7772 C   0  0  0  0  0  0  0  0  0  0  0  0
   -1.7005   -2.4017    2.6002 C   0  0  0  0  0  0  0  0  0  0  0  0
   -1.0121   -1.4426    3.5055 C   0  0  0  0  0  0  0  0  0  0  0  0
   -0.8413   -0.0672    3.1643 C   0  0  0  0  0  0  0  0  0  0  0  0
   -1.3398    0.5118    1.9699 C   0  0  0  0  0  0  0  0  0  0  0  0
   -1.1635    1.8732    1.6133 C   0  0  0  0  0  0  0  0  0  0  0  0
   -0.4442    2.6730    2.5282 C   0  0  0  0  0  0  0  0  0  0  0  0
    0.0577    2.1198    3.7177 C   0  0  0  0  0  0  0  0  0  0  0  0
   -0.1312    0.7702    4.0469 C   0  0  0  0  0  0  0  0  0  0  0  0
    0.3856    0.2504    5.2443 C   0  0  0  0  0  0  0  0  0  0  0  0
    0.2107   -1.0895    5.5786 C   0  0  0  0  0  0  0  0  0  0  0  0
   -0.4809   -1.9302    4.7144 C   0  0  0  0  0  0  0  0  0  0  0  0
   -0.2305    4.0257    2.2531 C   0  0  0  0  0  0  0  0  0  0  0  0
   -0.7161    4.6004    1.0822 C   0  0  0  0  0  0  0  0  0  0  0  0
   -1.4310    3.8399    0.1531 C   0  0  0  0  0  0  0  0  0  0  0  0
   -1.9098    4.4511   -1.0191 C   0  0  0  0  0  0  0  0  0  0  0  0
   -2.6341    3.7347   -1.9816 C   0  0  0  0  0  0  0  0  0  0  0  0
   -3.1143    4.3473   -3.1520 C   0  0  0  0  0  0  0  0  0  0  0  0
   -3.8348    3.6156   -4.0969 C   0  0  0  0  0  0  0  0  0  0  0  0
   -4.0833    2.2636   -3.8834 C   0  0  0  0  0  0  0  0  0  0  0  0
   -3.6117    1.6440   -2.7251 C   0  0  0  0  0  0  0  0  0  0  0  0
   -2.8850    2.3689   -1.7648 C   0  0  0  0  0  0  0  0  0  0  0  0
   -2.4032    1.7617   -0.5899 C   0  0  0  0  0  0  0  0  0  0  0  0
   -1.6683    2.4663    0.3994 C   0  0  0  0  0  0  0  0  0  0  0  0
   -0.9652   -3.0167    1.5357 C   0  0  0  0  0  0  0  0  0  0  0  0
    0.4048   -2.7618    1.2827 C   0  0  0  0  0  0  0  0  0  0  0  0
    1.1317   -3.3228    0.2048 C   0  0  0  0  0  0  0  0  0  0  0  0
    3.1838   -0.6727    0.6951 C   0  0  0  0  0  0  0  0  0  0  0  0
    2.4485   -0.0053   -0.3199 C   0  0  0  0  0  0  0  0  0  0  0  0
    2.3859    1.4083   -0.4593 C   0  0  0  0  0  0  0  0  0  0  0  0
   -1.7660    4.1417   -6.2248 H   0  0  0  0  0  0  0  0  0  0  0  0
   -1.8747    1.6612   -6.1823 H   0  0  0  0  0  0  0  0  0  0  0  0
   -0.6564    0.3986   -4.4537 H   0  0  0  0  0  0  0  0  0  0  0  0
    0.8019    0.3689   -2.4959 H   0  0  0  0  0  0  0  0  0  0  0  0
    1.0240    5.3079   -2.5474 H   0  0  0  0  0  0  0  0  0  0  0  0
   -0.4419    5.3499   -4.5344 H   0  0  0  0  0  0  0  0  0  0  0  0
    2.4439    5.3127   -0.6043 H   0  0  0  0  0  0  0  0  0  0  0  0
    3.6749    4.1479    1.1404 H   0  0  0  0  0  0  0  0  0  0  0  0
    4.3910    2.1298    2.2202 H   0  0  0  0  0  0  0  0  0  0  0  0
    5.1741    0.1454    3.3623 H   0  0  0  0  0  0  0  0  0  0  0  0
    5.2656   -2.3020    3.5839 H   0  0  0  0  0  0  0  0  0  0  0  0
    4.0419   -3.7400    1.9977 H   0  0  0  0  0  0  0  0  0  0  0  0
    5.1116   -2.6568   -0.9433 H   0  0  0  0  0  0  0  0  0  0  0  0
    6.1668   -3.7378   -2.8621 H   0  0  0  0  0  0  0  0  0  0  0  0
    4.8847   -5.3362   -4.2635 H   0  0  0  0  0  0  0  0  0  0  0  0
    2.5356   -5.8293   -3.7288 H   0  0  0  0  0  0  0  0  0  0  0  0
    0.5701   -5.5001   -2.3564 H   0  0  0  0  0  0  0  0  0  0  0  0
   -1.4308   -5.1979   -1.0470 H   0  0  0  0  0  0  0  0  0  0  0  0
   -3.4751   -4.8898    0.1925 H   0  0  0  0  0  0  0  0  0  0  0  0
   -5.5710   -4.5853    1.3582 H   0  0  0  0  0  0  0  0  0  0  0  0
   -6.9024   -3.5324    3.1375 H   0  0  0  0  0  0  0  0  0  0  0  0
   -5.8357   -1.9288    4.7023 H   0  0  0  0  0  0  0  0  0  0  0  0
   -3.4641   -1.3866    4.4870 H   0  0  0  0  0  0  0  0  0  0  0  0
   -1.8860   -0.1369    1.2912 H   0  0  0  0  0  0  0  0  0  0  0  0
    0.6118    2.7572    4.4048 H   0  0  0  0  0  0  0  0  0  0  0  0
    0.9372    0.8917    5.9282 H   0  0  0  0  0  0  0  0  0  0  0  0
    0.6207   -1.4790    6.5062 H   0  0  0  0  0  0  0  0  0  0  0  0
   -0.6006   -2.9802    4.9743 H   0  0  0  0  0  0  0  0  0  0  0  0
    0.3231    4.6515    2.9491 H   0  0  0  0  0  0  0  0  0  0  0  0
   -0.5281    5.6572    0.9041 H   0  0  0  0  0  0  0  0  0  0  0  0
   -1.7157    5.5092   -1.1862 H   0  0  0  0  0  0  0  0  0  0  0  0
   -2.9295    5.4033   -3.3343 H   0  0  0  0  0  0  0  0  0  0  0  0
   -4.2012    4.1013   -4.9972 H   0  0  0  0  0  0  0  0  0  0  0  0
   -4.6438    1.6896   -4.6164 H   0  0  0  0  0  0  0  0  0  0  0  0
   -3.8159    0.5860   -2.5750 H   0  0  0  0  0  0  0  0  0  0  0  0
   -2.6203    0.7057   -0.4514 H   0  0  0  0  0  0  0  0  0  0  0  0
    0.9273   -2.0751    1.9473 H   0  0  0  0  0  0  0  0  0  0  0  0
    1.9049   -0.6230   -1.0296 H   0  0  0  0  0  0  0  0  0  0  0  0
  1  2  4  0
  2  3  4  0
  3  4  4  0
  4  5  4  0
  5  6  4  0
  6  7  4  0
  7  8  4  0
  8  9  4  0
  9 10  4  0
  7 11  4  0
 11 12  4  0
 12 13  4  0
 13 14  4  0
 14 15  4  0
 15 16  4  0
 16 17  4  0
 17 18  4  0
 18 19  4  0
 19 20  1  0
 20 21  4  0
 21 22  4  0
 22 23  4  0
 23 24  4  0
 24 25  4  0
 25 26  4  0
 26 27  4  0
 27 28  4  0
 28 29  4  0
 29 30  4  0
 30 31  4  0
 31 32  4  0
 32 33  4  0
 33 34  4  0
 34 35  4  0
 35 36  4  0
 36 37  4  0
 37 38  4  0
 38 39  1  0
 39 40  4  0
 40 41  4  0
 41 42  4  0
 42 43  4  0
 43 44  4  0
 44 45  4  0
 45 46  4  0
 46 47  4  0
 47 48  4  0
 43 49  4  0
 49 50  4  0
 50 51  4  0
 51 52  4  0
 52 53  4  0
 53 54  4  0
 54 55  4  0
 55 56  4  0
 56 57  4  0
 57 58  4  0
 58 59  4  0
 59 60  4  0
 38 61  4  0
 61 62  4  0
 62 63  4  0
 19 64  4  0
 64 65  4  0
 65 66  4  0
 10  1  4  0
 66 13  4  0
  9  4  4  0
 64 15  4  0
 66  6  4  0
 63 20  4  0
 26 21  4  0
 63 28  4  0
 61 30  4  0
 37 32  4  0
 48 39  4  0
 60 51  4  0
 45 40  4  0
 58 53  4  0
 60 42  4  0
  1 67  1  0
  2 68  1  0
  3 69  1  0
  5 70  1  0
  8 71  1  0
 10 72  1  0
 11 73  1  0
 12 74  1  0
 14 75  1  0
 16 76  1  0
 17 77  1  0
 18 78  1  0
 22 79  1  0
 23 80  1  0
 24 81  1  0
 25 82  1  0
 27 83  1  0
 29 84  1  0
 31 85  1  0
 33 86  1  0
 34 87  1  0
 35 88  1  0
 36 89  1  0
 41 90  1  0
 44 91  1  0
 46 92  1  0
 47 93  1  0
 48 94  1  0
 49 95  1  0
 50 96  1  0
 52 97  1  0
 54 98  1  0
 55 99  1  0
 56100  1  0
 57101  1  0
 59102  1  0
 62103  1  0
 65104  1  0
M  END
