
     RDKit          3D

104118  0  0  0  0  0  0  0  0999 V2000
    3.2053    5.2455    5.8886 C   0  0  0  0  0  0  0  0  0  0  0  0
    2.9962    5.9886    4.7315 C   0  0  0  0  0  0  0  0  0  0  0  0
    2.8203    5.3382    3.5089 C   0  0  0  0  0  0  0  0  0  0  0  0
    2.8506    3.9351    3.4276 C   0  0  0  0  0  0  0  0  0  0  0  0
    2.6771    3.2594    2.2035 C   0  0  0  0  0  0  0  0  0  0  0  0
    2.7042    1.8431    2.0838 C   0  0  0  0  0  0  0  0  0  0  0  0
    2.9097    1.1234    3.2830 C   0  0  0  0  0  0  0  0  0  0  0  0
    3.0849    1.7895    4.5090 C   0  0  0  0  0  0  0  0  0  0  0  0
    3.0601    3.1866    4.5980 C   0  0  0  0  0  0  0  0  0  0  0  0
    3.2374    3.8522    5.8234 C   0  0  0  0  0  0  0  0  0  0  0  0
    2.9392   -0.2675    3.2567 C   0  0  0  0  0  0  0  0  0  0  0  0
    2.7742   -0.9597    2.0606 C   0  0  0  0  0  0  0  0  0  0  0  0
    2.5752   -0.3004    0.8315 C   0  0  0  0  0  0  0  0  0  0  0  0
    2.4042   -1.0232   -0.3973 C   0  0  0  0  0  0  0  0  0  0  0  0
    2.3808   -2.5213   -0.3919 C   0  0  0  0  0  0  0  0  0  0  0  0
    3.5910   -3.2644   -0.5580 C   0  0  0  0  0  0  0  0  0  0  0  0
    4.8669   -2.6670   -0.7040 C   0  0  0  0  0  0  0  0  0  0  0  0
    6.0260   -3.4299   -0.8589 C   0  0  0  0  0  0  0  0  0  0  0  0
    5.9433   -4.8145   -0.8750 C   0  0  0  0  0  0  0  0  0  0  0  0
    4.7018   -5.4325   -0.7381 C   0  0  0  0  0  0  0  0  0  0  0  0
    3.5271   -4.6759   -0.5815 C   0  0  0  0  0  0  0  0  0  0  0  0
    2.2883   -5.3196   -0.4549 C   0  0  0  0  0  0  0  0  0  0  0  0
    1.0938   -4.6039   -0.2947 C   0  0  0  0  0  0  0  0  0  0  0  0
   -0.1372   -5.2757   -0.1923 C   0  0  0  0  0  0  0  0  0  0  0  0
   -1.3537   -4.5861   -0.0421 C   0  0  0  0  0  0  0  0  0  0  0  0
   -2.5662   -5.2850    0.0271 C   0  0  0  0  0  0  0  0  0  0  0  0
   -3.7956   -4.6255    0.1622 C   0  0  0  0  0  0  0  0  0  0  0  0
   -4.9894   -5.3664    0.2143 C   0  0  0  0  0  0  0  0  0  0  0  0
   -6.2241   -4.7343    0.3467 C   0  0  0  0  0  0  0  0  0  0  0  0
   -6.2811   -3.3508    0.4283 C   0  0  0  0  0  0  0  0  0  0  0  0
   -5.1025   -2.6032    0.3789 C   0  0  0  0  0  0  0  0  0  0  0  0
   -3.8316   -3.2153    0.2467 C   0  0  0  0  0  0  0  0  0  0  0  0
   -2.6003   -2.4890    0.1967 C   0  0  0  0  0  0  0  0  0  0  0  0
   -2.5965   -0.9956    0.3283 C   0  0  0  0  0  0  0  0  0  0  0  0
   -2.5756   -0.1659   -0.8448 C   0  0  0  0  0  0  0  0  0  0  0  0
   -2.6034   -0.7112   -2.1439 C   0  0  0  0  0  0  0  0  0  0  0  0
   -2.5591    0.0844   -3.2854 C   0  0  0  0  0  0  0  0  0  0  0  0
   -2.4943    1.4706   -3.1841 C   0  0  0  0  0  0  0  0  0  0  0  0
   -2.4541    2.2434   -4.3585 C   0  0  0  0  0  0  0  0  0  0  0  0
   -2.3942    3.6420   -4.3177 C   0  0  0  0  0  0  0  0  0  0  0  0
   -2.3558    4.4147   -5.4911 C   0  0  0  0  0  0  0  0  0  0  0  0
   -2.2970    5.8072   -5.4261 C   0  0  0  0  0  0  0  0  0  0  0  0
   -2.2757    6.4428   -4.1891 C   0  0  0  0  0  0  0  0  0  0  0  0
   -2.3135    5.6856   -3.0173 C   0  0  0  0  0  0  0  0  0  0  0  0
   -2.3730    4.2820   -3.0674 C   0  0  0  0  0  0  0  0  0  0  0  0
   -2.4119    3.4997   -1.8965 C   0  0  0  0  0  0  0  0  0  0  0  0
   -2.4723    2.0794   -1.9086 C   0  0  0  0  0  0  0  0  0  0  0  0
   -2.5109    1.2465   -0.7251 C   0  0  0  0  0  0  0  0  0  0  0  0
   -2.4815    1.7756    0.5864 C   0  0  0  0  0  0  0  0  0  0  0  0
   -2.5132    0.9866    1.7464 C   0  0  0  0  0  0  0  0  0  0  0  0
   -2.4858    1.5948    3.0152 C   0  0  0  0  0  0  0  0  0  0  0  0
   -2.5096    0.8341    4.1819 C   0  0  0  0  0  0  0  0  0  0  0  0
   -2.5541   -0.5483    4.0949 C   0  0  0  0  0  0  0  0  0  0  0  0
   -2.5801   -1.1618    2.8407 C   0  0  0  0  0  0  0  0  0  0  0  0
   -2.5666   -0.4140    1.6347 C   0  0  0  0  0  0  0  0  0  0  0  0
   -1.3570   -3.1838    0.0368 C   0  0  0  0  0  0  0  0  0  0  0  0
   -0.1048   -2.5310   -0.0589 C   0  0  0  0  0  0  0  0  0  0  0  0
    1.1283   -3.2010   -0.2452 C   0  0  0  0  0  0  0  0  0  0  0  0
    2.2015   -0.3297   -1.6317 C   0  0  0  0  0  0  0  0  0  0  0  0
    2.0237   -0.9700   -2.8855 C   0  0  0  0  0  0  0  0  0  0  0  0
    1.8144   -0.2500   -4.0635 C   0  0  0  0  0  0  0  0  0  0  0  0
    1.7757    1.1349   -4.0237 C   0  0  0  0  0  0  0  0  0  0  0  0
    1.9481    1.7917   -2.8072 C   0  0  0  0  0  0  0  0  0  0  0  0
    2.1617    1.0756   -1.6146 C   0  0  0  0  0  0  0  0  0  0  0  0
    2.3288    1.7601   -0.4008 C   0  0  0  0  0  0  0  0  0  0  0  0
    2.5378    1.1178    0.8421 C   0  0  0  0  0  0  0  0  0  0  0  0
    3.3432    5.7486    6.8421 H   0  0  0  0  0  0  0  0  0  0  0  0
    2.9700    7.0741    4.7781 H   0  0  0  0  0  0  0  0  0  0  0  0
    2.6589    5.9373    2.6155 H   0  0  0  0  0  0  0  0  0  0  0  0
    2.5144    3.8731    1.3220 H   0  0  0  0  0  0  0  0  0  0  0  0
    3.2409    1.2052    5.4145 H   0  0  0  0  0  0  0  0  0  0  0  0
    3.4029    3.2869    6.7379 H   0  0  0  0  0  0  0  0  0  0  0  0
    3.0888   -0.8402    4.1694 H   0  0  0  0  0  0  0  0  0  0  0  0
    2.8037   -2.0467    2.1115 H   0  0  0  0  0  0  0  0  0  0  0  0
    4.9725   -1.5834   -0.6970 H   0  0  0  0  0  0  0  0  0  0  0  0
    6.9881   -2.9362   -0.9658 H   0  0  0  0  0  0  0  0  0  0  0  0
    6.8414   -5.4143   -0.9953 H   0  0  0  0  0  0  0  0  0  0  0  0
    4.6584   -6.5197   -0.7556 H   0  0  0  0  0  0  0  0  0  0  0  0
    2.2528   -6.4080   -0.4857 H   0  0  0  0  0  0  0  0  0  0  0  0
   -0.1500   -6.3640   -0.2420 H   0  0  0  0  0  0  0  0  0  0  0  0
   -2.5533   -6.3724   -0.0341 H   0  0  0  0  0  0  0  0  0  0  0  0
   -4.9661   -6.4523    0.1503 H   0  0  0  0  0  0  0  0  0  0  0  0
   -7.1372   -5.3221    0.3847 H   0  0  0  0  0  0  0  0  0  0  0  0
   -7.2387   -2.8468    0.5303 H   0  0  0  0  0  0  0  0  0  0  0  0
   -5.1885   -1.5199    0.4446 H   0  0  0  0  0  0  0  0  0  0  0  0
   -2.6528   -1.7881   -2.2951 H   0  0  0  0  0  0  0  0  0  0  0  0
   -2.5742   -0.4041   -4.2573 H   0  0  0  0  0  0  0  0  0  0  0  0
   -2.4710    1.7449   -5.3265 H   0  0  0  0  0  0  0  0  0  0  0  0
   -2.3720    3.9344   -6.4669 H   0  0  0  0  0  0  0  0  0  0  0  0
   -2.2678    6.3931   -6.3408 H   0  0  0  0  0  0  0  0  0  0  0  0
   -2.2298    7.5272   -4.1342 H   0  0  0  0  0  0  0  0  0  0  0  0
   -2.2960    6.2009   -2.0595 H   0  0  0  0  0  0  0  0  0  0  0  0
   -2.3933    4.0325   -0.9501 H   0  0  0  0  0  0  0  0  0  0  0  0
   -2.4233    2.8515    0.7289 H   0  0  0  0  0  0  0  0  0  0  0  0
   -2.4412    2.6786    3.1034 H   0  0  0  0  0  0  0  0  0  0  0  0
   -2.4899    1.3222    5.1522 H   0  0  0  0  0  0  0  0  0  0  0  0
   -2.5671   -1.1549    4.9960 H   0  0  0  0  0  0  0  0  0  0  0  0
   -2.6121   -2.2494    2.8151 H   0  0  0  0  0  0  0  0  0  0  0  0
   -0.0900   -1.4436    0.0022 H   0  0  0  0  0  0  0  0  0  0  0  0
    2.0443   -2.0558   -2.9580 H   0  0  0  0  0  0  0  0  0  0  0  0
    1.6779   -0.7762   -5.0039 H   0  0  0  0  0  0  0  0  0  0  0  0
    1.6071    1.7052   -4.9327 H   0  0  0  0  0  0  0  0  0  0  0  0
    1.9069    2.8790   -2.7945 H   0  0  0  0  0  0  0  0  0  0  0  0
    2.2859    2.8452   -0.4424 H   0  0  0  0  0  0  0  0  0  0  0  0
  1  2  4  0
  2  3  4  0
  3  4  4  0
  4  5  4  0
  5  6  4  0
  6  7  4  0
  7  8  4  0
  8  9  4  0
  9 10  4  0
  7 11  4  0
 11 12  4  0
 12 13  4  0
 13 14  4  0
 14 15  1  0
 15 16  4  0
 16 17  4  0
 17 18  4  0
 18 19  4  0
 19 20  4  0
 20 21  4  0
 21 22  4  0
 22 23  4  0
 23 24  4  0
 24 25  4  0
 25 26  4  0
 26 27  4  0
 27 28  4  0
 28 29  4  0
 29 30  4  0
 30 31  4  0
 31 32  4  0
 32 33  4  0
 33 34  1  0
 34 35  4  0
 35 36  4  0
 36 37  4  0
 37 38  4  0
 38 39  4  0
 39 40  4  0
 40 41  4  0
 41 42  4  0
 42 43  4  0
 43 44  4  0
 44 45  4  0
 45 46  4  0
 46 47  4  0
 47 48  4  0
 48 49  4  0
 49 50  4  0
 50 51  4  0
 51 52  4  0
 52 53  4  0
 53 54  4  0
 54 55  4  0
 33 56  4  0
 56 57  4  0
 57 58  4  0
 14 59  4  0
 59 60  4  0
 60 61  4  0
 61 62  4  0
 62 63  4  0
 63 64  4  0
 64 65  4  0
 65 66  4  0
 10  1  4  0
 66 13  4  0
  9  4  4  0
 58 15  4  0
 64 59  4  0
 66  6  4  0
 21 16  4  0
 58 23  4  0
 56 25  4  0
 32 27  4  0
 55 34  4  0
 48 35  4  0
 55 50  4  0
 47 38  4  0
 45 40  4  0
  1 67  1  0
  2 68  1  0
  3 69  1  0
  5 70  1  0
  8 71  1  0
 10 72  1  0
 11 73  1  0
 12 74  1  0
 17 75  1  0
 18 76  1  0
 19 77  1  0
 20 78  1  0
 22 79  1  0
 24 80  1  0
 26 81  1  0
 28 82  1  0
 29 83  1  0
 30 84  1  0
 31 85  1  0
 36 86  1  0
 37 87  1  0
 39 88  1  0
 41 89  1  0
 42 90  1  0
 43 91  1  0
 44 92  1  0
 46 93  1  0
 49 94  1  0
 51 95  1  0
 52 96  1  0
 53 97  1  0
 54 98  1  0
 57 99  1  0
 60100  1  0
 61101  1  0
 62102  1  0
 63103  1  0
 65104  1  0
M  END
