
     RDKit          3D

104118  0  0  0  0  0  0  0  0999 V2000
    2.5038   -7.0530   -2.6849 C   0  0  0  0  0  0  0  0  0  0  0  0
    2.7355   -5.8525   -3.3481 C   0  0  0  0  0  0  0  0  0  0  0  0
    2.6874   -4.6481   -2.6442 C   0  0  0  0  0  0  0  0  0  0  0  0
    2.4067   -4.6288   -1.2670 C   0  0  0  0  0  0  0  0  0  0  0  0
    2.3537   -3.4242   -0.5398 C   0  0  0  0  0  0  0  0  0  0  0  0
    2.0727   -3.3718    0.8503 C   0  0  0  0  0  0  0  0  0  0  0  0
    1.8414   -4.6112    1.4955 C   0  0  0  0  0  0  0  0  0  0  0  0
    1.8933   -5.8170    0.7744 C   0  0  0  0  0  0  0  0  0  0  0  0
    2.1728   -5.8430   -0.5983 C   0  0  0  0  0  0  0  0  0  0  0  0
    2.2240   -7.0491   -1.3179 C   0  0  0  0  0  0  0  0  0  0  0  0
    1.5579   -4.6430    2.8629 C   0  0  0  0  0  0  0  0  0  0  0  0
    1.4976   -3.4687    3.6070 C   0  0  0  0  0  0  0  0  0  0  0  0
    1.7198   -2.2273    3.0060 C   0  0  0  0  0  0  0  0  0  0  0  0
    1.6497   -1.0606    3.7872 C   0  0  0  0  0  0  0  0  0  0  0  0
    1.8631    0.2092    3.2355 C   0  0  0  0  0  0  0  0  0  0  0  0
    1.7858    1.3725    4.0171 C   0  0  0  0  0  0  0  0  0  0  0  0
    1.9927    2.6300    3.4463 C   0  0  0  0  0  0  0  0  0  0  0  0
    2.2882    2.7530    2.0830 C   0  0  0  0  0  0  0  0  0  0  0  0
    2.4783    4.0871    1.4707 C   0  0  0  0  0  0  0  0  0  0  0  0
    3.7515    4.7359    1.5479 C   0  0  0  0  0  0  0  0  0  0  0  0
    4.8929    4.1672    2.1678 C   0  0  0  0  0  0  0  0  0  0  0  0
    6.1171    4.8375    2.2231 C   0  0  0  0  0  0  0  0  0  0  0  0
    6.2387    6.0985    1.6585 C   0  0  0  0  0  0  0  0  0  0  0  0
    5.1373    6.6840    1.0383 C   0  0  0  0  0  0  0  0  0  0  0  0
    3.9001    6.0188    0.9751 C   0  0  0  0  0  0  0  0  0  0  0  0
    2.8102    6.6285    0.3414 C   0  0  0  0  0  0  0  0  0  0  0  0
    1.5609    6.0015    0.2500 C   0  0  0  0  0  0  0  0  0  0  0  0
    0.4915    6.6429   -0.3978 C   0  0  0  0  0  0  0  0  0  0  0  0
   -0.7755    6.0473   -0.5174 C   0  0  0  0  0  0  0  0  0  0  0  0
   -1.8144    6.7190   -1.1755 C   0  0  0  0  0  0  0  0  0  0  0  0
   -3.0874    6.1529   -1.3198 C   0  0  0  0  0  0  0  0  0  0  0  0
   -4.1006    6.8620   -1.9889 C   0  0  0  0  0  0  0  0  0  0  0  0
   -5.3741    6.3198   -2.1485 C   0  0  0  0  0  0  0  0  0  0  0  0
   -5.6513    5.0596   -1.6401 C   0  0  0  0  0  0  0  0  0  0  0  0
   -4.6532    4.3455   -0.9729 C   0  0  0  0  0  0  0  0  0  0  0  0
   -3.3474    4.8677   -0.7936 C   0  0  0  0  0  0  0  0  0  0  0  0
   -2.2958    4.1705   -0.1189 C   0  0  0  0  0  0  0  0  0  0  0  0
   -2.5358    2.8154    0.4246 C   0  0  0  0  0  0  0  0  0  0  0  0
   -2.9269    2.6352    1.7567 C   0  0  0  0  0  0  0  0  0  0  0  0
   -3.1223    1.3514    2.2701 C   0  0  0  0  0  0  0  0  0  0  0  0
   -2.9381    0.2190    1.4610 C   0  0  0  0  0  0  0  0  0  0  0  0
   -3.1301   -1.0772    1.9568 C   0  0  0  0  0  0  0  0  0  0  0  0
   -2.9532   -2.2124    1.1465 C   0  0  0  0  0  0  0  0  0  0  0  0
   -3.1622   -3.4819    1.6907 C   0  0  0  0  0  0  0  0  0  0  0  0
   -2.9986   -4.6262    0.9161 C   0  0  0  0  0  0  0  0  0  0  0  0
   -2.6221   -4.5355   -0.4260 C   0  0  0  0  0  0  0  0  0  0  0  0
   -2.4689   -5.7123   -1.1796 C   0  0  0  0  0  0  0  0  0  0  0  0
   -2.0958   -5.6795   -2.5298 C   0  0  0  0  0  0  0  0  0  0  0  0
   -1.9448   -6.8570   -3.2818 C   0  0  0  0  0  0  0  0  0  0  0  0
   -1.5736   -6.8025   -4.6258 C   0  0  0  0  0  0  0  0  0  0  0  0
   -1.3491   -5.5716   -5.2333 C   0  0  0  0  0  0  0  0  0  0  0  0
   -1.4955   -4.3952   -4.4966 C   0  0  0  0  0  0  0  0  0  0  0  0
   -1.8688   -4.4345   -3.1418 C   0  0  0  0  0  0  0  0  0  0  0  0
   -2.0220   -3.2590   -2.3818 C   0  0  0  0  0  0  0  0  0  0  0  0
   -2.4002   -3.2662   -1.0137 C   0  0  0  0  0  0  0  0  0  0  0  0
   -2.5684   -2.0797   -0.2100 C   0  0  0  0  0  0  0  0  0  0  0  0
   -2.3741   -0.7573   -0.6863 C   0  0  0  0  0  0  0  0  0  0  0  0
   -2.5521    0.3827    0.1205 C   0  0  0  0  0  0  0  0  0  0  0  0
   -2.3521    1.6804   -0.3823 C   0  0  0  0  0  0  0  0  0  0  0  0
   -1.0021    4.7700    0.0223 C   0  0  0  0  0  0  0  0  0  0  0  0
    0.0895    4.1468    0.6801 C   0  0  0  0  0  0  0  0  0  0  0  0
    1.3781    4.7258    0.8099 C   0  0  0  0  0  0  0  0  0  0  0  0
    2.3726    1.5862    1.3057 C   0  0  0  0  0  0  0  0  0  0  0  0
    2.1578    0.3144    1.8661 C   0  0  0  0  0  0  0  0  0  0  0  0
    2.2253   -0.8568    1.0879 C   0  0  0  0  0  0  0  0  0  0  0  0
    2.0113   -2.1541    1.6221 C   0  0  0  0  0  0  0  0  0  0  0  0
    2.5404   -7.9927   -3.2296 H   0  0  0  0  0  0  0  0  0  0  0  0
    2.9537   -5.8509   -4.4127 H   0  0  0  0  0  0  0  0  0  0  0  0
    2.8712   -3.7198   -3.1806 H   0  0  0  0  0  0  0  0  0  0  0  0
    2.5391   -2.5045   -1.0880 H   0  0  0  0  0  0  0  0  0  0  0  0
    1.7118   -6.7575    1.2925 H   0  0  0  0  0  0  0  0  0  0  0  0
    2.0454   -7.9971   -0.8154 H   0  0  0  0  0  0  0  0  0  0  0  0
    1.3788   -5.5894    3.3696 H   0  0  0  0  0  0  0  0  0  0  0  0
    1.2737   -3.5383    4.6697 H   0  0  0  0  0  0  0  0  0  0  0  0
    1.4217   -1.1414    4.8489 H   0  0  0  0  0  0  0  0  0  0  0  0
    1.5564    1.3094    5.0783 H   0  0  0  0  0  0  0  0  0  0  0  0
    1.9159    3.5188    4.0694 H   0  0  0  0  0  0  0  0  0  0  0  0
    4.8401    3.1777    2.6185 H   0  0  0  0  0  0  0  0  0  0  0  0
    6.9703    4.3692    2.7067 H   0  0  0  0  0  0  0  0  0  0  0  0
    7.1878    6.6261    1.6974 H   0  0  0  0  0  0  0  0  0  0  0  0
    5.2528    7.6728    0.5991 H   0  0  0  0  0  0  0  0  0  0  0  0
    2.9392    7.6179   -0.0957 H   0  0  0  0  0  0  0  0  0  0  0  0
    0.6505    7.6332   -0.8233 H   0  0  0  0  0  0  0  0  0  0  0  0
   -1.6267    7.7094   -1.5884 H   0  0  0  0  0  0  0  0  0  0  0  0
   -3.9026    7.8518   -2.3954 H   0  0  0  0  0  0  0  0  0  0  0  0
   -6.1452    6.8815   -2.6687 H   0  0  0  0  0  0  0  0  0  0  0  0
   -6.6408    4.6261   -1.7589 H   0  0  0  0  0  0  0  0  0  0  0  0
   -4.9105    3.3601   -0.5881 H   0  0  0  0  0  0  0  0  0  0  0  0
   -3.0719    3.4978    2.4040 H   0  0  0  0  0  0  0  0  0  0  0  0
   -3.4176    1.2419    3.3110 H   0  0  0  0  0  0  0  0  0  0  0  0
   -3.4238   -1.2043    2.9975 H   0  0  0  0  0  0  0  0  0  0  0  0
   -3.4584   -3.5971    2.7314 H   0  0  0  0  0  0  0  0  0  0  0  0
   -3.1718   -5.5958    1.3785 H   0  0  0  0  0  0  0  0  0  0  0  0
   -2.6449   -6.6766   -0.7053 H   0  0  0  0  0  0  0  0  0  0  0  0
   -2.1164   -7.8284   -2.8234 H   0  0  0  0  0  0  0  0  0  0  0  0
   -1.4605   -7.7206   -5.1962 H   0  0  0  0  0  0  0  0  0  0  0  0
   -1.0600   -5.5248   -6.2798 H   0  0  0  0  0  0  0  0  0  0  0  0
   -1.3157   -3.4428   -4.9902 H   0  0  0  0  0  0  0  0  0  0  0  0
   -1.8385   -2.3138   -2.8856 H   0  0  0  0  0  0  0  0  0  0  0  0
   -2.0750   -0.5941   -1.7181 H   0  0  0  0  0  0  0  0  0  0  0  0
   -2.0435    1.8168   -1.4178 H   0  0  0  0  0  0  0  0  0  0  0  0
   -0.0719    3.1595    1.1112 H   0  0  0  0  0  0  0  0  0  0  0  0
    2.5941    1.6779    0.2434 H   0  0  0  0  0  0  0  0  0  0  0  0
    2.4500   -0.7390    0.0314 H   0  0  0  0  0  0  0  0  0  0  0  0
  1  2  4  0
  2  3  4  0
  3  4  4  0
  4  5  4  0
  5  6  4  0
  6  7  4  0
  7  8  4  0
  8  9  4  0
  9 10  4  0
  7 11  4  0
 11 12  4  0
 12 13  4  0
 13 14  4  0
 14 15  4  0
 15 16  4  0
 16 17  4  0
 17 18  4  0
 18 19  1  0
 19 20  4  0
 20 21  4  0
 21 22  4  0
 22 23  4  0
 23 24  4  0
 24 25  4  0
 25 26  4  0
 26 27  4  0
 27 28  4  0
 28 29  4  0
 29 30  4  0
 30 31  4  0
 31 32  4  0
 32 33  4  0
 33 34  4  0
 34 35  4  0
 35 36  4  0
 36 37  4  0
 37 38  1  0
 38 39  4  0
 39 40  4  0
 40 41  4  0
 41 42  4  0
 42 43  4  0
 43 44  4  0
 44 45  4  0
 45 46  4  0
 46 47  4  0
 47 48  4  0
 48 49  4  0
 49 50  4  0
 50 51  4  0
 51 52  4  0
 52 53  4  0
 53 54  4  0
 54 55  4  0
 55 56  4  0
 56 57  4  0
 57 58  4  0
 58 59  4  0
 37 60  4  0
 60 61  4  0
 61 62  4  0
 18 63  4  0
 63 64  4  0
 64 65  4  0
 65 66  4  0
 10  1  4  0
 66 13  4  0
  9  4  4  0
 64 15  4  0
 66  6  4  0
 62 19  4  0
 25 20  4  0
 62 27  4  0
 60 29  4  0
 36 31  4  0
 59 38  4  0
 58 41  4  0
 56 43  4  0
 55 46  4  0
 53 48  4  0
  1 67  1  0
  2 68  1  0
  3 69  1  0
  5 70  1  0
  8 71  1  0
 10 72  1  0
 11 73  1  0
 12 74  1  0
 14 75  1  0
 16 76  1  0
 17 77  1  0
 21 78  1  0
 22 79  1  0
 23 80  1  0
 24 81  1  0
 26 82  1  0
 28 83  1  0
 30 84  1  0
 32 85  1  0
 33 86  1  0
 34 87  1  0
 35 88  1  0
 39 89  1  0
 40 90  1  0
 42 91  1  0
 44 92  1  0
 45 93  1  0
 47 94  1  0
 49 95  1  0
 50 96  1  0
 51 97  1  0
 52 98  1  0
 54 99  1  0
 57100  1  0
 59101  1  0
 61102  1  0
 63103  1  0
 65104  1  0
M  END
