
     RDKit          3D

104118  0  0  0  0  0  0  0  0999 V2000
    2.6414    7.8235    0.8598 C   0  0  0  0  0  0  0  0  0  0  0  0
    2.5868    7.6432   -0.5184 C   0  0  0  0  0  0  0  0  0  0  0  0
    2.5727    6.3531   -1.0516 C   0  0  0  0  0  0  0  0  0  0  0  0
    2.6129    5.2255   -0.2130 C   0  0  0  0  0  0  0  0  0  0  0  0
    2.5986    3.9162   -0.7317 C   0  0  0  0  0  0  0  0  0  0  0  0
    2.6372    2.7586    0.0888 C   0  0  0  0  0  0  0  0  0  0  0  0
    2.6931    2.9770    1.4869 C   0  0  0  0  0  0  0  0  0  0  0  0
    2.7080    4.2818    2.0100 C   0  0  0  0  0  0  0  0  0  0  0  0
    2.6682    5.4097    1.1795 C   0  0  0  0  0  0  0  0  0  0  0  0
    2.6820    6.7137    1.7046 C   0  0  0  0  0  0  0  0  0  0  0  0
    2.7339    1.8883    2.3610 C   0  0  0  0  0  0  0  0  0  0  0  0
    2.7191    0.5842    1.8770 C   0  0  0  0  0  0  0  0  0  0  0  0
    2.6618    0.3301    0.5046 C   0  0  0  0  0  0  0  0  0  0  0  0
    2.6426   -1.0002    0.0499 C   0  0  0  0  0  0  0  0  0  0  0  0
    2.5826   -1.3369   -1.3190 C   0  0  0  0  0  0  0  0  0  0  0  0
    2.5476   -2.6790   -1.8009 C   0  0  0  0  0  0  0  0  0  0  0  0
    2.5415   -3.8518   -0.8868 C   0  0  0  0  0  0  0  0  0  0  0  0
    3.7731   -4.4867   -0.5294 C   0  0  0  0  0  0  0  0  0  0  0  0
    5.0444   -4.0547   -0.9827 C   0  0  0  0  0  0  0  0  0  0  0  0
    6.2232   -4.7037   -0.6092 C   0  0  0  0  0  0  0  0  0  0  0  0
    6.1672   -5.8061    0.2306 C   0  0  0  0  0  0  0  0  0  0  0  0
    4.9330   -6.2543    0.6965 C   0  0  0  0  0  0  0  0  0  0  0  0
    3.7396   -5.6084    0.3285 C   0  0  0  0  0  0  0  0  0  0  0  0
    2.5122   -6.0757    0.8143 C   0  0  0  0  0  0  0  0  0  0  0  0
    1.2998   -5.4597    0.4778 C   0  0  0  0  0  0  0  0  0  0  0  0
    0.0890   -5.9535    0.9900 C   0  0  0  0  0  0  0  0  0  0  0  0
   -1.1480   -5.3641    0.6812 C   0  0  0  0  0  0  0  0  0  0  0  0
   -2.3320   -5.8874    1.2168 C   0  0  0  0  0  0  0  0  0  0  0  0
   -3.5834   -5.3261    0.9352 C   0  0  0  0  0  0  0  0  0  0  0  0
   -4.7460   -5.8818    1.4978 C   0  0  0  0  0  0  0  0  0  0  0  0
   -6.0023   -5.3393    1.2363 C   0  0  0  0  0  0  0  0  0  0  0  0
   -6.1123   -4.2337    0.4063 C   0  0  0  0  0  0  0  0  0  0  0  0
   -4.9648   -3.6746   -0.1604 C   0  0  0  0  0  0  0  0  0  0  0  0
   -3.6718   -4.2002    0.0867 C   0  0  0  0  0  0  0  0  0  0  0  0
   -2.4697   -3.6543   -0.4673 C   0  0  0  0  0  0  0  0  0  0  0  0
   -2.5386   -2.4690   -1.3631 C   0  0  0  0  0  0  0  0  0  0  0  0
   -2.5501   -1.1331   -0.8617 C   0  0  0  0  0  0  0  0  0  0  0  0
   -2.4996   -0.8132    0.5118 C   0  0  0  0  0  0  0  0  0  0  0  0
   -2.5317    0.5102    0.9860 C   0  0  0  0  0  0  0  0  0  0  0  0
   -2.4880    0.7468    2.3623 C   0  0  0  0  0  0  0  0  0  0  0  0
   -2.5272    2.0432    2.8655 C   0  0  0  0  0  0  0  0  0  0  0  0
   -2.6122    3.1415    2.0070 C   0  0  0  0  0  0  0  0  0  0  0  0
   -2.6559    4.4376    2.5494 C   0  0  0  0  0  0  0  0  0  0  0  0
   -2.7449    5.5741    1.7350 C   0  0  0  0  0  0  0  0  0  0  0  0
   -2.7910    6.8689    2.2793 C   0  0  0  0  0  0  0  0  0  0  0  0
   -2.8816    7.9879    1.4508 C   0  0  0  0  0  0  0  0  0  0  0  0
   -2.9272    7.8259    0.0701 C   0  0  0  0  0  0  0  0  0  0  0  0
   -2.8816    6.5449   -0.4823 C   0  0  0  0  0  0  0  0  0  0  0  0
   -2.7901    5.4082    0.3397 C   0  0  0  0  0  0  0  0  0  0  0  0
   -2.7438    4.1076   -0.1982 C   0  0  0  0  0  0  0  0  0  0  0  0
   -2.6554    2.9412    0.6056 C   0  0  0  0  0  0  0  0  0  0  0  0
   -2.6125    1.5954    0.0854 C   0  0  0  0  0  0  0  0  0  0  0  0
   -2.6494    1.2654   -1.2930 C   0  0  0  0  0  0  0  0  0  0  0  0
   -2.6206   -0.0594   -1.7723 C   0  0  0  0  0  0  0  0  0  0  0  0
   -2.6669   -0.3180   -3.1518 C   0  0  0  0  0  0  0  0  0  0  0  0
   -2.6521   -1.6214   -3.6403 C   0  0  0  0  0  0  0  0  0  0  0  0
   -2.5919   -2.6885   -2.7524 C   0  0  0  0  0  0  0  0  0  0  0  0
   -1.1991   -4.2438   -0.1656 C   0  0  0  0  0  0  0  0  0  0  0  0
    0.0358   -3.7620   -0.6698 C   0  0  0  0  0  0  0  0  0  0  0  0
    1.2963   -4.3422   -0.3739 C   0  0  0  0  0  0  0  0  0  0  0  0
    2.4915   -2.9173   -3.1872 C   0  0  0  0  0  0  0  0  0  0  0  0
    2.4673   -1.8618   -4.0907 C   0  0  0  0  0  0  0  0  0  0  0  0
    2.4940   -0.5517   -3.6209 C   0  0  0  0  0  0  0  0  0  0  0  0
    2.5493   -0.2749   -2.2451 C   0  0  0  0  0  0  0  0  0  0  0  0
    2.5676    1.0566   -1.7848 C   0  0  0  0  0  0  0  0  0  0  0  0
    2.6217    1.4046   -0.4115 C   0  0  0  0  0  0  0  0  0  0  0  0
    2.6520    8.8265    1.2785 H   0  0  0  0  0  0  0  0  0  0  0  0
    2.5549    8.5049   -1.1799 H   0  0  0  0  0  0  0  0  0  0  0  0
    2.5295    6.2330   -2.1318 H   0  0  0  0  0  0  0  0  0  0  0  0
    2.5547    3.8098   -1.8120 H   0  0  0  0  0  0  0  0  0  0  0  0
    2.7510    4.4231    3.0888 H   0  0  0  0  0  0  0  0  0  0  0  0
    2.7243    6.8730    2.7797 H   0  0  0  0  0  0  0  0  0  0  0  0
    2.7774    2.0421    3.4373 H   0  0  0  0  0  0  0  0  0  0  0  0
    2.7527   -0.2366    2.5909 H   0  0  0  0  0  0  0  0  0  0  0  0
    2.6705   -1.7992    0.7899 H   0  0  0  0  0  0  0  0  0  0  0  0
    5.1313   -3.1902   -1.6387 H   0  0  0  0  0  0  0  0  0  0  0  0
    7.1802   -4.3421   -0.9760 H   0  0  0  0  0  0  0  0  0  0  0  0
    7.0803   -6.3158    0.5257 H   0  0  0  0  0  0  0  0  0  0  0  0
    4.9099   -7.1191    1.3565 H   0  0  0  0  0  0  0  0  0  0  0  0
    2.5009   -6.9417    1.4753 H   0  0  0  0  0  0  0  0  0  0  0  0
    0.1101   -6.8200    1.6498 H   0  0  0  0  0  0  0  0  0  0  0  0
   -2.2781   -6.7558    1.8724 H   0  0  0  0  0  0  0  0  0  0  0  0
   -4.6809   -6.7494    2.1515 H   0  0  0  0  0  0  0  0  0  0  0  0
   -6.8906   -5.7794    1.6812 H   0  0  0  0  0  0  0  0  0  0  0  0
   -7.0864   -3.7998    0.1967 H   0  0  0  0  0  0  0  0  0  0  0  0
   -5.0933   -2.8057   -0.8038 H   0  0  0  0  0  0  0  0  0  0  0  0
   -2.4394   -1.6212    1.2401 H   0  0  0  0  0  0  0  0  0  0  0  0
   -2.4232   -0.0830    3.0638 H   0  0  0  0  0  0  0  0  0  0  0  0
   -2.4920    2.1833    3.9440 H   0  0  0  0  0  0  0  0  0  0  0  0
   -2.6223    4.5654    3.6302 H   0  0  0  0  0  0  0  0  0  0  0  0
   -2.7567    7.0146    3.3567 H   0  0  0  0  0  0  0  0  0  0  0  0
   -2.9168    8.9838    1.8845 H   0  0  0  0  0  0  0  0  0  0  0  0
   -2.9981    8.6949   -0.5786 H   0  0  0  0  0  0  0  0  0  0  0  0
   -2.9190    6.4395   -1.5642 H   0  0  0  0  0  0  0  0  0  0  0  0
   -2.7812    4.0147   -1.2800 H   0  0  0  0  0  0  0  0  0  0  0  0
   -2.7072    2.0608   -2.0313 H   0  0  0  0  0  0  0  0  0  0  0  0
   -2.7179    0.5032   -3.8637 H   0  0  0  0  0  0  0  0  0  0  0  0
   -2.6886   -1.8042   -4.7107 H   0  0  0  0  0  0  0  0  0  0  0  0
   -2.5815   -3.7051   -3.1414 H   0  0  0  0  0  0  0  0  0  0  0  0
    0.0155   -2.8873   -1.3192 H   0  0  0  0  0  0  0  0  0  0  0  0
    2.4603   -3.9391   -3.5610 H   0  0  0  0  0  0  0  0  0  0  0  0
    2.4213   -2.0585   -5.1582 H   0  0  0  0  0  0  0  0  0  0  0  0
    2.4673    0.2613   -4.3434 H   0  0  0  0  0  0  0  0  0  0  0  0
    2.5356    1.8429   -2.5342 H   0  0  0  0  0  0  0  0  0  0  0  0
  1  2  4  0
  2  3  4  0
  3  4  4  0
  4  5  4  0
  5  6  4  0
  6  7  4  0
  7  8  4  0
  8  9  4  0
  9 10  4  0
  7 11  4  0
 11 12  4  0
 12 13  4  0
 13 14  4  0
 14 15  4  0
 15 16  4  0
 16 17  1  0
 17 18  4  0
 18 19  4  0
 19 20  4  0
 20 21  4  0
 21 22  4  0
 22 23  4  0
 23 24  4  0
 24 25  4  0
 25 26  4  0
 26 27  4  0
 27 28  4  0
 28 29  4  0
 29 30  4  0
 30 31  4  0
 31 32  4  0
 32 33  4  0
 33 34  4  0
 34 35  4  0
 35 36  1  0
 36 37  4  0
 37 38  4  0
 38 39  4  0
 39 40  4  0
 40 41  4  0
 41 42  4  0
 42 43  4  0
 43 44  4  0
 44 45  4  0
 45 46  4  0
 46 47  4  0
 47 48  4  0
 48 49  4  0
 49 50  4  0
 50 51  4  0
 51 52  4  0
 52 53  4  0
 53 54  4  0
 54 55  4  0
 55 56  4  0
 56 57  4  0
 35 58  4  0
 58 59  4  0
 59 60  4  0
 16 61  4  0
 61 62  4  0
 62 63  4  0
 63 64  4  0
 64 65  4  0
 65 66  4  0
 10  1  4  0
 66 13  4  0
  9  4  4  0
 64 15  4  0
 66  6  4  0
 60 17  4  0
 23 18  4  0
 60 25  4  0
 58 27  4  0
 34 29  4  0
 57 36  4  0
 54 37  4  0
 52 39  4  0
 51 42  4  0
 49 44  4  0
  1 67  1  0
  2 68  1  0
  3 69  1  0
  5 70  1  0
  8 71  1  0
 10 72  1  0
 11 73  1  0
 12 74  1  0
 14 75  1  0
 19 76  1  0
 20 77  1  0
 21 78  1  0
 22 79  1  0
 24 80  1  0
 26 81  1  0
 28 82  1  0
 30 83  1  0
 31 84  1  0
 32 85  1  0
 33 86  1  0
 38 87  1  0
 40 88  1  0
 41 89  1  0
 43 90  1  0
 45 91  1  0
 46 92  1  0
 47 93  1  0
 48 94  1  0
 50 95  1  0
 53 96  1  0
 55 97  1  0
 56 98  1  0
 57 99  1  0
 59100  1  0
 61101  1  0
 62102  1  0
 63103  1  0
 65104  1  0
M  END
