
     RDKit          3D

 96110  0  0  0  0  0  0  0  0999 V2000
    1.9614    5.0592    4.3346 C   0  0  0  0  0  0  0  0  0  0  0  0
    2.1656    5.8209    3.1954 C   0  0  0  0  0  0  0  0  0  0  0  0
    2.3457    5.1914    1.9597 C   0  0  0  0  0  0  0  0  0  0  0  0
    2.3291    3.7791    1.8157 C   0  0  0  0  0  0  0  0  0  0  0  0
    2.1176    3.0275    2.9960 C   0  0  0  0  0  0  0  0  0  0  0  0
    1.9374    3.6712    4.2336 C   0  0  0  0  0  0  0  0  0  0  0  0
    2.0871    1.6312    2.9365 C   0  0  0  0  0  0  0  0  0  0  0  0
    2.2669    0.9451    1.7319 C   0  0  0  0  0  0  0  0  0  0  0  0
    2.2308   -0.4535    1.7089 C   0  0  0  0  0  0  0  0  0  0  0  0
    2.4113   -1.1804    0.5198 C   0  0  0  0  0  0  0  0  0  0  0  0
    2.3134   -2.6648    0.5847 C   0  0  0  0  0  0  0  0  0  0  0  0
    3.4557   -3.4477    0.9415 C   0  0  0  0  0  0  0  0  0  0  0  0
    4.7277   -2.8977    1.2376 C   0  0  0  0  0  0  0  0  0  0  0  0
    5.8174   -3.6995    1.5849 C   0  0  0  0  0  0  0  0  0  0  0  0
    5.6688   -5.0774    1.6445 C   0  0  0  0  0  0  0  0  0  0  0  0
    4.4324   -5.6499    1.3533 C   0  0  0  0  0  0  0  0  0  0  0  0
    3.3281   -4.8542    1.0015 C   0  0  0  0  0  0  0  0  0  0  0  0
    2.0983   -5.4562    0.7043 C   0  0  0  0  0  0  0  0  0  0  0  0
    0.9735   -4.7029    0.3434 C   0  0  0  0  0  0  0  0  0  0  0  0
   -0.2421   -5.3376    0.0328 C   0  0  0  0  0  0  0  0  0  0  0  0
   -1.3852   -4.6141   -0.3504 C   0  0  0  0  0  0  0  0  0  0  0  0
   -2.5759   -5.2793   -0.6715 C   0  0  0  0  0  0  0  0  0  0  0  0
   -3.7269   -4.5870   -1.0712 C   0  0  0  0  0  0  0  0  0  0  0  0
   -4.8989   -5.2953   -1.3895 C   0  0  0  0  0  0  0  0  0  0  0  0
   -6.0539   -4.6305   -1.7964 C   0  0  0  0  0  0  0  0  0  0  0  0
   -6.0507   -3.2467   -1.8927 C   0  0  0  0  0  0  0  0  0  0  0  0
   -4.8931   -2.5313   -1.5786 C   0  0  0  0  0  0  0  0  0  0  0  0
   -3.7044   -3.1767   -1.1570 C   0  0  0  0  0  0  0  0  0  0  0  0
   -2.4994   -2.4839   -0.8238 C   0  0  0  0  0  0  0  0  0  0  0  0
   -2.4439   -0.9986   -0.8913 C   0  0  0  0  0  0  0  0  0  0  0  0
   -2.8600   -0.2723    0.2373 C   0  0  0  0  0  0  0  0  0  0  0  0
   -2.7870    1.1236    0.2831 C   0  0  0  0  0  0  0  0  0  0  0  0
   -3.2052    1.8091    1.4269 C   0  0  0  0  0  0  0  0  0  0  0  0
   -3.1403    3.2025    1.5093 C   0  0  0  0  0  0  0  0  0  0  0  0
   -3.5734    3.8458    2.6822 C   0  0  0  0  0  0  0  0  0  0  0  0
   -3.5242    5.2313    2.8036 C   0  0  0  0  0  0  0  0  0  0  0  0
   -3.0403    5.9908    1.7508 C   0  0  0  0  0  0  0  0  0  0  0  0
   -2.6070    5.3614    0.5799 C   0  0  0  0  0  0  0  0  0  0  0  0
   -2.6408    3.9517    0.4173 C   0  0  0  0  0  0  0  0  0  0  0  0
   -2.2060    3.2572   -0.7669 C   0  0  0  0  0  0  0  0  0  0  0  0
   -2.2852    1.8383   -0.8223 C   0  0  0  0  0  0  0  0  0  0  0  0
   -1.8640    1.1165   -1.9771 C   0  0  0  0  0  0  0  0  0  0  0  0
   -1.9444   -0.3014   -2.0218 C   0  0  0  0  0  0  0  0  0  0  0  0
   -1.5082   -0.9589   -3.1943 C   0  0  0  0  0  0  0  0  0  0  0  0
   -1.0066   -0.2534   -4.2851 C   0  0  0  0  0  0  0  0  0  0  0  0
   -0.9302    1.1319   -4.2331 C   0  0  0  0  0  0  0  0  0  0  0  0
   -1.3538    1.8232   -3.0915 C   0  0  0  0  0  0  0  0  0  0  0  0
   -1.2750    3.2135   -3.0430 C   0  0  0  0  0  0  0  0  0  0  0  0
   -1.6911    3.9113   -1.9075 C   0  0  0  0  0  0  0  0  0  0  0  0
   -1.3347   -3.2122   -0.4175 C   0  0  0  0  0  0  0  0  0  0  0  0
   -0.1050   -2.5953   -0.0810 C   0  0  0  0  0  0  0  0  0  0  0  0
    1.0655   -3.3023    0.2865 C   0  0  0  0  0  0  0  0  0  0  0  0
    2.6349   -0.4801   -0.6942 C   0  0  0  0  0  0  0  0  0  0  0  0
    2.6631    0.9407   -0.6766 C   0  0  0  0  0  0  0  0  0  0  0  0
    2.8711    1.6512   -1.8825 C   0  0  0  0  0  0  0  0  0  0  0  0
    3.0441    0.9608   -3.0880 C   0  0  0  0  0  0  0  0  0  0  0  0
    3.0200   -0.4270   -3.1137 C   0  0  0  0  0  0  0  0  0  0  0  0
    2.8212   -1.1362   -1.9320 C   0  0  0  0  0  0  0  0  0  0  0  0
    2.9017    3.0442   -1.8609 C   0  0  0  0  0  0  0  0  0  0  0  0
    2.7265    3.7415   -0.6641 C   0  0  0  0  0  0  0  0  0  0  0  0
    2.5120    3.0845    0.5673 C   0  0  0  0  0  0  0  0  0  0  0  0
    2.4814    1.6626    0.5390 C   0  0  0  0  0  0  0  0  0  0  0  0
    1.8208    5.5402    5.2986 H   0  0  0  0  0  0  0  0  0  0  0  0
    2.1861    6.9055    3.2596 H   0  0  0  0  0  0  0  0  0  0  0  0
    2.5020    5.8373    1.1007 H   0  0  0  0  0  0  0  0  0  0  0  0
    1.7759    3.0876    5.1380 H   0  0  0  0  0  0  0  0  0  0  0  0
    1.9191    1.0632    3.8503 H   0  0  0  0  0  0  0  0  0  0  0  0
    2.0488   -1.0031    2.6322 H   0  0  0  0  0  0  0  0  0  0  0  0
    4.8872   -1.8215    1.1961 H   0  0  0  0  0  0  0  0  0  0  0  0
    6.7782   -3.2420    1.8057 H   0  0  0  0  0  0  0  0  0  0  0  0
    6.5124   -5.7072    1.9141 H   0  0  0  0  0  0  0  0  0  0  0  0
    4.3372   -6.7328    1.4018 H   0  0  0  0  0  0  0  0  0  0  0  0
    2.0164   -6.5416    0.7491 H   0  0  0  0  0  0  0  0  0  0  0  0
   -0.2972   -6.4245    0.0803 H   0  0  0  0  0  0  0  0  0  0  0  0
   -2.6063   -6.3665   -0.6140 H   0  0  0  0  0  0  0  0  0  0  0  0
   -4.9200   -6.3811   -1.3239 H   0  0  0  0  0  0  0  0  0  0  0  0
   -6.9509   -5.1933   -2.0397 H   0  0  0  0  0  0  0  0  0  0  0  0
   -6.9440   -2.7172   -2.2132 H   0  0  0  0  0  0  0  0  0  0  0  0
   -4.9294   -1.4473   -1.6725 H   0  0  0  0  0  0  0  0  0  0  0  0
   -3.2343   -0.8221    1.1006 H   0  0  0  0  0  0  0  0  0  0  0  0
   -3.5898    1.2433    2.2745 H   0  0  0  0  0  0  0  0  0  0  0  0
   -3.9563    3.2651    3.5194 H   0  0  0  0  0  0  0  0  0  0  0  0
   -3.8626    5.7123    3.7171 H   0  0  0  0  0  0  0  0  0  0  0  0
   -2.9965    7.0737    1.8332 H   0  0  0  0  0  0  0  0  0  0  0  0
   -2.2375    6.0053   -0.2129 H   0  0  0  0  0  0  0  0  0  0  0  0
   -1.5506   -2.0438   -3.2687 H   0  0  0  0  0  0  0  0  0  0  0  0
   -0.6724   -0.7874   -5.1698 H   0  0  0  0  0  0  0  0  0  0  0  0
   -0.5331    1.6689   -5.0909 H   0  0  0  0  0  0  0  0  0  0  0  0
   -0.8843    3.7758   -3.8881 H   0  0  0  0  0  0  0  0  0  0  0  0
   -1.5979    4.9928   -1.9386 H   0  0  0  0  0  0  0  0  0  0  0  0
   -0.0523   -1.5077   -0.1209 H   0  0  0  0  0  0  0  0  0  0  0  0
    3.1979    1.5009   -4.0189 H   0  0  0  0  0  0  0  0  0  0  0  0
    3.1522   -0.9593   -4.0512 H   0  0  0  0  0  0  0  0  0  0  0  0
    2.8072   -2.2228   -1.9899 H   0  0  0  0  0  0  0  0  0  0  0  0
    3.0599    3.6092   -2.7768 H   0  0  0  0  0  0  0  0  0  0  0  0
    2.7608    4.8254   -0.7220 H   0  0  0  0  0  0  0  0  0  0  0  0
  1  2  4  0
  2  3  4  0
  3  4  4  0
  4  5  4  0
  5  6  4  0
  5  7  4  0
  7  8  4  0
  8  9  4  0
  9 10  4  0
 10 11  1  0
 11 12  4  0
 12 13  4  0
 13 14  4  0
 14 15  4  0
 15 16  4  0
 16 17  4  0
 17 18  4  0
 18 19  4  0
 19 20  4  0
 20 21  4  0
 21 22  4  0
 22 23  4  0
 23 24  4  0
 24 25  4  0
 25 26  4  0
 26 27  4  0
 27 28  4  0
 28 29  4  0
 29 30  1  0
 30 31  4  0
 31 32  4  0
 32 33  4  0
 33 34  4  0
 34 35  4  0
 35 36  4  0
 36 37  4  0
 37 38  4  0
 38 39  4  0
 39 40  4  0
 40 41  4  0
 41 42  4  0
 42 43  4  0
 43 44  4  0
 44 45  4  0
 45 46  4  0
 46 47  4  0
 47 48  4  0
 48 49  4  0
 29 50  4  0
 50 51  4  0
 51 52  4  0
 10 53  4  0
 53 54  4  0
 54 55  4  0
 55 56  4  0
 56 57  4  0
 57 58  4  0
 55 59  4  0
 59 60  4  0
 60 61  4  0
 61 62  4  0
  6  1  4  0
 62  8  4  0
 61  4  4  0
 52 11  4  0
 58 53  4  0
 17 12  4  0
 52 19  4  0
 62 54  4  0
 50 21  4  0
 28 23  4  0
 43 30  4  0
 41 32  4  0
 47 42  4  0
 39 34  4  0
 49 40  4  0
  1 63  1  0
  2 64  1  0
  3 65  1  0
  6 66  1  0
  7 67  1  0
  9 68  1  0
 13 69  1  0
 14 70  1  0
 15 71  1  0
 16 72  1  0
 18 73  1  0
 20 74  1  0
 22 75  1  0
 24 76  1  0
 25 77  1  0
 26 78  1  0
 27 79  1  0
 31 80  1  0
 33 81  1  0
 35 82  1  0
 36 83  1  0
 37 84  1  0
 38 85  1  0
 44 86  1  0
 45 87  1  0
 46 88  1  0
 48 89  1  0
 49 90  1  0
 51 91  1  0
 56 92  1  0
 57 93  1  0
 58 94  1  0
 59 95  1  0
 60 96  1  0
M  END
