
     RDKit          3D

 68 76  0  0  0  0  0  0  0  0999 V2000
   -3.9350    3.4759   -0.7655 C   0  0  0  0  0  0  0  0  0  0  0  0
   -3.2526    3.7660    0.4149 C   0  0  0  0  0  0  0  0  0  0  0  0
   -2.6554    2.7468    1.1753 C   0  0  0  0  0  0  0  0  0  0  0  0
   -1.9683    3.0608    2.3572 C   0  0  0  0  0  0  0  0  0  0  0  0
   -1.3673    2.0656    3.1225 C   0  0  0  0  0  0  0  0  0  0  0  0
   -1.4443    0.7392    2.7135 C   0  0  0  0  0  0  0  0  0  0  0  0
   -2.1214    0.3837    1.5310 C   0  0  0  0  0  0  0  0  0  0  0  0
   -2.1266   -1.0491    1.1323 C   0  0  0  0  0  0  0  0  0  0  0  0
   -3.1699   -1.9167    1.5843 C   0  0  0  0  0  0  0  0  0  0  0  0
   -4.2509   -1.4933    2.3970 C   0  0  0  0  0  0  0  0  0  0  0  0
   -5.2502   -2.3740    2.8163 C   0  0  0  0  0  0  0  0  0  0  0  0
   -5.1987   -3.7067    2.4353 C   0  0  0  0  0  0  0  0  0  0  0  0
   -4.1494   -4.1546    1.6355 C   0  0  0  0  0  0  0  0  0  0  0  0
   -3.1380   -3.2777    1.2061 C   0  0  0  0  0  0  0  0  0  0  0  0
   -2.0945   -3.7525    0.4011 C   0  0  0  0  0  0  0  0  0  0  0  0
   -1.0685   -2.9131   -0.0524 C   0  0  0  0  0  0  0  0  0  0  0  0
   -0.0370   -3.4220   -0.8600 C   0  0  0  0  0  0  0  0  0  0  0  0
    1.0067   -2.6112   -1.3377 C   0  0  0  0  0  0  0  0  0  0  0  0
    2.0185   -3.1555   -2.1400 C   0  0  0  0  0  0  0  0  0  0  0  0
    3.0720   -2.3751   -2.6334 C   0  0  0  0  0  0  0  0  0  0  0  0
    4.0677   -2.9621   -3.4336 C   0  0  0  0  0  0  0  0  0  0  0  0
    5.1260   -2.2071   -3.9352 C   0  0  0  0  0  0  0  0  0  0  0  0
    5.2023   -0.8535   -3.6423 C   0  0  0  0  0  0  0  0  0  0  0  0
    4.2189   -0.2587   -2.8491 C   0  0  0  0  0  0  0  0  0  0  0  0
    3.1298   -0.9977   -2.3242 C   0  0  0  0  0  0  0  0  0  0  0  0
    2.1032   -0.4285   -1.5072 C   0  0  0  0  0  0  0  0  0  0  0  0
    2.1314    1.0208   -1.1748 C   0  0  0  0  0  0  0  0  0  0  0  0
    2.7763    1.5233   -0.0067 C   0  0  0  0  0  0  0  0  0  0  0  0
    3.4649    0.7038    0.9181 C   0  0  0  0  0  0  0  0  0  0  0  0
    4.0784    1.2346    2.0544 C   0  0  0  0  0  0  0  0  0  0  0  0
    4.0207    2.6002    2.2976 C   0  0  0  0  0  0  0  0  0  0  0  0
    3.3490    3.4345    1.4053 C   0  0  0  0  0  0  0  0  0  0  0  0
    2.7257    2.9155    0.2581 C   0  0  0  0  0  0  0  0  0  0  0  0
    2.0485    3.7706   -0.6239 C   0  0  0  0  0  0  0  0  0  0  0  0
    1.4227    3.2746   -1.7640 C   0  0  0  0  0  0  0  0  0  0  0  0
    1.4650    1.9122   -2.0374 C   0  0  0  0  0  0  0  0  0  0  0  0
    1.0368   -1.2454   -1.0102 C   0  0  0  0  0  0  0  0  0  0  0  0
   -0.0110   -0.7561   -0.1907 C   0  0  0  0  0  0  0  0  0  0  0  0
   -1.0722   -1.5544    0.3043 C   0  0  0  0  0  0  0  0  0  0  0  0
   -2.7420    1.3984    0.7448 C   0  0  0  0  0  0  0  0  0  0  0  0
   -3.4401    1.1370   -0.4575 C   0  0  0  0  0  0  0  0  0  0  0  0
   -4.0288    2.1613   -1.2020 C   0  0  0  0  0  0  0  0  0  0  0  0
   -4.3919    4.2762   -1.3412 H   0  0  0  0  0  0  0  0  0  0  0  0
   -3.1896    4.8024    0.7397 H   0  0  0  0  0  0  0  0  0  0  0  0
   -1.8875    4.0932    2.6899 H   0  0  0  0  0  0  0  0  0  0  0  0
   -0.8311    2.3245    4.0314 H   0  0  0  0  0  0  0  0  0  0  0  0
   -0.9596   -0.0298    3.3126 H   0  0  0  0  0  0  0  0  0  0  0  0
   -4.3280   -0.4545    2.7137 H   0  0  0  0  0  0  0  0  0  0  0  0
   -6.0649   -2.0128    3.4383 H   0  0  0  0  0  0  0  0  0  0  0  0
   -5.9727   -4.3977    2.7578 H   0  0  0  0  0  0  0  0  0  0  0  0
   -4.1272   -5.2033    1.3465 H   0  0  0  0  0  0  0  0  0  0  0  0
   -2.0813   -4.8044    0.1188 H   0  0  0  0  0  0  0  0  0  0  0  0
   -0.0467   -4.4786   -1.1245 H   0  0  0  0  0  0  0  0  0  0  0  0
    1.9851   -4.2158   -2.3872 H   0  0  0  0  0  0  0  0  0  0  0  0
    4.0261   -4.0225   -3.6743 H   0  0  0  0  0  0  0  0  0  0  0  0
    5.8874   -2.6768   -4.5518 H   0  0  0  0  0  0  0  0  0  0  0  0
    6.0239   -0.2550   -4.0267 H   0  0  0  0  0  0  0  0  0  0  0  0
    4.3138    0.8052   -2.6387 H   0  0  0  0  0  0  0  0  0  0  0  0
    3.5292   -0.3712    0.7598 H   0  0  0  0  0  0  0  0  0  0  0  0
    4.5994    0.5770    2.7451 H   0  0  0  0  0  0  0  0  0  0  0  0
    4.4973    3.0179    3.1801 H   0  0  0  0  0  0  0  0  0  0  0  0
    3.3147    4.5017    1.6138 H   0  0  0  0  0  0  0  0  0  0  0  0
    1.9951    4.8384   -0.4238 H   0  0  0  0  0  0  0  0  0  0  0  0
    0.8945    3.9478   -2.4336 H   0  0  0  0  0  0  0  0  0  0  0  0
    0.9620    1.5331   -2.9253 H   0  0  0  0  0  0  0  0  0  0  0  0
   -0.0003    0.3005    0.0748 H   0  0  0  0  0  0  0  0  0  0  0  0
   -3.5311    0.1186   -0.8307 H   0  0  0  0  0  0  0  0  0  0  0  0
   -4.5588    1.9265   -2.1213 H   0  0  0  0  0  0  0  0  0  0  0  0
  1  2  4  0
  2  3  4  0
  3  4  4  0
  4  5  4  0
  5  6  4  0
  6  7  4  0
  7  8  1  0
  8  9  4  0
  9 10  4  0
 10 11  4  0
 11 12  4  0
 12 13  4  0
 13 14  4  0
 14 15  4  0
 15 16  4  0
 16 17  4  0
 17 18  4  0
 18 19  4  0
 19 20  4  0
 20 21  4  0
 21 22  4  0
 22 23  4  0
 23 24  4  0
 24 25  4  0
 25 26  4  0
 26 27  1  0
 27 28  4  0
 28 29  4  0
 29 30  4  0
 30 31  4  0
 31 32  4  0
 32 33  4  0
 33 34  4  0
 34 35  4  0
 35 36  4  0
 26 37  4  0
 37 38  4  0
 38 39  4  0
  7 40  4  0
 40 41  4  0
 41 42  4  0
 42  1  4  0
 40  3  4  0
 39  8  4  0
 14  9  4  0
 39 16  4  0
 37 18  4  0
 25 20  4  0
 36 27  4  0
 33 28  4  0
  1 43  1  0
  2 44  1  0
  4 45  1  0
  5 46  1  0
  6 47  1  0
 10 48  1  0
 11 49  1  0
 12 50  1  0
 13 51  1  0
 15 52  1  0
 17 53  1  0
 19 54  1  0
 21 55  1  0
 22 56  1  0
 23 57  1  0
 24 58  1  0
 29 59  1  0
 30 60  1  0
 31 61  1  0
 32 62  1  0
 34 63  1  0
 35 64  1  0
 36 65  1  0
 38 66  1  0
 41 67  1  0
 42 68  1  0
M  END
