
     RDKit          3D

 80 90  0  0  0  0  0  0  0  0999 V2000
   -2.3359    5.8113   -2.7167 C   0  0  0  0  0  0  0  0  0  0  0  0
   -1.8378    5.0889   -3.7965 C   0  0  0  0  0  0  0  0  0  0  0  0
   -1.7115    3.7018   -3.7085 C   0  0  0  0  0  0  0  0  0  0  0  0
   -2.0811    3.0194   -2.5377 C   0  0  0  0  0  0  0  0  0  0  0  0
   -1.9575    1.6241   -2.4331 C   0  0  0  0  0  0  0  0  0  0  0  0
   -2.3223    0.9433   -1.2599 C   0  0  0  0  0  0  0  0  0  0  0  0
   -2.1864   -0.4512   -1.1505 C   0  0  0  0  0  0  0  0  0  0  0  0
   -2.5383   -1.1292    0.0281 C   0  0  0  0  0  0  0  0  0  0  0  0
   -2.3347   -2.5900    0.1494 C   0  0  0  0  0  0  0  0  0  0  0  0
   -3.4015   -3.4929   -0.1537 C   0  0  0  0  0  0  0  0  0  0  0  0
   -4.6849   -3.0796   -0.5904 C   0  0  0  0  0  0  0  0  0  0  0  0
   -5.7002   -3.9957   -0.8751 C   0  0  0  0  0  0  0  0  0  0  0  0
   -5.4625   -5.3547   -0.7324 C   0  0  0  0  0  0  0  0  0  0  0  0
   -4.2107   -5.7941   -0.3066 C   0  0  0  0  0  0  0  0  0  0  0  0
   -3.1802   -4.8820   -0.0174 C   0  0  0  0  0  0  0  0  0  0  0  0
   -1.9293   -5.3493    0.4066 C   0  0  0  0  0  0  0  0  0  0  0  0
   -0.8736   -4.4765    0.7020 C   0  0  0  0  0  0  0  0  0  0  0  0
    0.3702   -4.9789    1.1220 C   0  0  0  0  0  0  0  0  0  0  0  0
    1.4551   -4.1361    1.4201 C   0  0  0  0  0  0  0  0  0  0  0  0
    2.6807   -4.6753    1.8326 C   0  0  0  0  0  0  0  0  0  0  0  0
    3.7839   -3.8645    2.1297 C   0  0  0  0  0  0  0  0  0  0  0  0
    4.9956   -4.4487    2.5384 C   0  0  0  0  0  0  0  0  0  0  0  0
    6.1093   -3.6654    2.8344 C   0  0  0  0  0  0  0  0  0  0  0  0
    6.0255   -2.2853    2.7238 C   0  0  0  0  0  0  0  0  0  0  0  0
    4.8272   -1.6928    2.3191 C   0  0  0  0  0  0  0  0  0  0  0  0
    3.6754   -2.4603    2.0137 C   0  0  0  0  0  0  0  0  0  0  0  0
    2.4295   -1.8957    1.5971 C   0  0  0  0  0  0  0  0  0  0  0  0
    2.2868   -0.4294    1.4559 C   0  0  0  0  0  0  0  0  0  0  0  0
    2.4840    0.1896    0.2105 C   0  0  0  0  0  0  0  0  0  0  0  0
    2.3013    1.5726    0.0438 C   0  0  0  0  0  0  0  0  0  0  0  0
    2.4812    2.1881   -1.2057 C   0  0  0  0  0  0  0  0  0  0  0  0
    2.2954    3.5702   -1.3739 C   0  0  0  0  0  0  0  0  0  0  0  0
    2.4755    4.1870   -2.6230 C   0  0  0  0  0  0  0  0  0  0  0  0
    2.2864    5.5615   -2.7748 C   0  0  0  0  0  0  0  0  0  0  0  0
    1.9149    6.3365   -1.6806 C   0  0  0  0  0  0  0  0  0  0  0  0
    1.7320    5.7383   -0.4329 C   0  0  0  0  0  0  0  0  0  0  0  0
    1.9185    4.3563   -0.2640 C   0  0  0  0  0  0  0  0  0  0  0  0
    1.7366    3.7398    0.9851 C   0  0  0  0  0  0  0  0  0  0  0  0
    1.9224    2.3577    1.1524 C   0  0  0  0  0  0  0  0  0  0  0  0
    1.7349    1.7406    2.3986 C   0  0  0  0  0  0  0  0  0  0  0  0
    1.9137    0.3633    2.5484 C   0  0  0  0  0  0  0  0  0  0  0  0
    1.3124   -2.7436    1.3023 C   0  0  0  0  0  0  0  0  0  0  0  0
    0.0454   -2.2604    0.8882 C   0  0  0  0  0  0  0  0  0  0  0  0
   -1.0617   -3.0900    0.5770 C   0  0  0  0  0  0  0  0  0  0  0  0
   -3.0467   -0.3891    1.1030 C   0  0  0  0  0  0  0  0  0  0  0  0
   -3.1909    0.9967    1.0070 C   0  0  0  0  0  0  0  0  0  0  0  0
   -2.8283    1.6759   -0.1658 C   0  0  0  0  0  0  0  0  0  0  0  0
   -2.9544    3.0706   -0.2708 C   0  0  0  0  0  0  0  0  0  0  0  0
   -2.5859    3.7522   -1.4422 C   0  0  0  0  0  0  0  0  0  0  0  0
   -2.7080    5.1477   -1.5468 C   0  0  0  0  0  0  0  0  0  0  0  0
   -2.4358    6.8916   -2.7839 H   0  0  0  0  0  0  0  0  0  0  0  0
   -1.5478    5.6038   -4.7088 H   0  0  0  0  0  0  0  0  0  0  0  0
   -1.3197    3.1545   -4.5630 H   0  0  0  0  0  0  0  0  0  0  0  0
   -1.5677    1.0588   -3.2779 H   0  0  0  0  0  0  0  0  0  0  0  0
   -1.7823   -1.0217   -1.9854 H   0  0  0  0  0  0  0  0  0  0  0  0
   -4.9102   -2.0221   -0.7173 H   0  0  0  0  0  0  0  0  0  0  0  0
   -6.6723   -3.6416   -1.2082 H   0  0  0  0  0  0  0  0  0  0  0  0
   -6.2476   -6.0730   -0.9526 H   0  0  0  0  0  0  0  0  0  0  0  0
   -4.0434   -6.8643   -0.2020 H   0  0  0  0  0  0  0  0  0  0  0  0
   -1.7726   -6.4226    0.5073 H   0  0  0  0  0  0  0  0  0  0  0  0
    0.4987   -6.0566    1.2166 H   0  0  0  0  0  0  0  0  0  0  0  0
    2.7799   -5.7563    1.9228 H   0  0  0  0  0  0  0  0  0  0  0  0
    5.0820   -5.5297    2.6287 H   0  0  0  0  0  0  0  0  0  0  0  0
    7.0382   -4.1336    3.1481 H   0  0  0  0  0  0  0  0  0  0  0  0
    6.8882   -1.6641    2.9495 H   0  0  0  0  0  0  0  0  0  0  0  0
    4.8027   -0.6071    2.2420 H   0  0  0  0  0  0  0  0  0  0  0  0
    2.7689   -0.4246   -0.6425 H   0  0  0  0  0  0  0  0  0  0  0  0
    2.7660    1.5800   -2.0624 H   0  0  0  0  0  0  0  0  0  0  0  0
    2.7661    3.5980   -3.4903 H   0  0  0  0  0  0  0  0  0  0  0  0
    2.4294    6.0251   -3.7473 H   0  0  0  0  0  0  0  0  0  0  0  0
    1.7669    7.4070   -1.7966 H   0  0  0  0  0  0  0  0  0  0  0  0
    1.4410    6.3607    0.4102 H   0  0  0  0  0  0  0  0  0  0  0  0
    1.4424    4.3454    1.8400 H   0  0  0  0  0  0  0  0  0  0  0  0
    1.4365    2.3283    3.2636 H   0  0  0  0  0  0  0  0  0  0  0  0
    1.7474   -0.0940    3.5215 H   0  0  0  0  0  0  0  0  0  0  0  0
   -0.0851   -1.1821    0.8009 H   0  0  0  0  0  0  0  0  0  0  0  0
   -3.3207   -0.8914    2.0286 H   0  0  0  0  0  0  0  0  0  0  0  0
   -3.5814    1.5434    1.8622 H   0  0  0  0  0  0  0  0  0  0  0  0
   -3.3419    3.6358    0.5746 H   0  0  0  0  0  0  0  0  0  0  0  0
   -3.0951    5.7297   -0.7135 H   0  0  0  0  0  0  0  0  0  0  0  0
  1  2  4  0
  2  3  4  0
  3  4  4  0
  4  5  4  0
  5  6  4  0
  6  7  4  0
  7  8  4  0
  8  9  1  0
  9 10  4  0
 10 11  4  0
 11 12  4  0
 12 13  4  0
 13 14  4  0
 14 15  4  0
 15 16  4  0
 16 17  4  0
 17 18  4  0
 18 19  4  0
 19 20  4  0
 20 21  4  0
 21 22  4  0
 22 23  4  0
 23 24  4  0
 24 25  4  0
 25 26  4  0
 26 27  4  0
 27 28  1  0
 28 29  4  0
 29 30  4  0
 30 31  4  0
 31 32  4  0
 32 33  4  0
 33 34  4  0
 34 35  4  0
 35 36  4  0
 36 37  4  0
 37 38  4  0
 38 39  4  0
 39 40  4  0
 40 41  4  0
 27 42  4  0
 42 43  4  0
 43 44  4  0
  8 45  4  0
 45 46  4  0
 46 47  4  0
 47 48  4  0
 48 49  4  0
 49 50  4  0
 50  1  4  0
 49  4  4  0
 47  6  4  0
 44  9  4  0
 15 10  4  0
 44 17  4  0
 42 19  4  0
 26 21  4  0
 41 28  4  0
 39 30  4  0
 37 32  4  0
  1 51  1  0
  2 52  1  0
  3 53  1  0
  5 54  1  0
  7 55  1  0
 11 56  1  0
 12 57  1  0
 13 58  1  0
 14 59  1  0
 16 60  1  0
 18 61  1  0
 20 62  1  0
 22 63  1  0
 23 64  1  0
 24 65  1  0
 25 66  1  0
 29 67  1  0
 31 68  1  0
 33 69  1  0
 34 70  1  0
 35 71  1  0
 36 72  1  0
 38 73  1  0
 40 74  1  0
 41 75  1  0
 43 76  1  0
 45 77  1  0
 46 78  1  0
 48 79  1  0
 50 80  1  0
M  END
