
     RDKit          3D

 80 90  0  0  0  0  0  0  0  0999 V2000
    4.1253   -2.2193    5.3563 C   0  0  0  0  0  0  0  0  0  0  0  0
    3.4151   -3.0303    4.4698 C   0  0  0  0  0  0  0  0  0  0  0  0
    3.0841   -2.5716    3.1834 C   0  0  0  0  0  0  0  0  0  0  0  0
    2.3704   -3.3720    2.2785 C   0  0  0  0  0  0  0  0  0  0  0  0
    2.0389   -2.9151    0.9914 C   0  0  0  0  0  0  0  0  0  0  0  0
    1.3191   -3.7414    0.1148 C   0  0  0  0  0  0  0  0  0  0  0  0
    0.9775   -3.3068   -1.1623 C   0  0  0  0  0  0  0  0  0  0  0  0
    1.3547   -2.0367   -1.5819 C   0  0  0  0  0  0  0  0  0  0  0  0
    2.0754   -1.1772   -0.7306 C   0  0  0  0  0  0  0  0  0  0  0  0
    2.4132    0.1818   -1.2322 C   0  0  0  0  0  0  0  0  0  0  0  0
    3.6609    0.4140   -1.8923 C   0  0  0  0  0  0  0  0  0  0  0  0
    4.6435   -0.5866   -2.0959 C   0  0  0  0  0  0  0  0  0  0  0  0
    5.8518   -0.3164   -2.7421 C   0  0  0  0  0  0  0  0  0  0  0  0
    6.1141    0.9640   -3.2063 C   0  0  0  0  0  0  0  0  0  0  0  0
    5.1679    1.9703   -3.0230 C   0  0  0  0  0  0  0  0  0  0  0  0
    3.9483    1.7110   -2.3731 C   0  0  0  0  0  0  0  0  0  0  0  0
    3.0131    2.7397   -2.2018 C   0  0  0  0  0  0  0  0  0  0  0  0
    1.7874    2.5266   -1.5572 C   0  0  0  0  0  0  0  0  0  0  0  0
    0.8700    3.5805   -1.4070 C   0  0  0  0  0  0  0  0  0  0  0  0
   -0.3689    3.4063   -0.7670 C   0  0  0  0  0  0  0  0  0  0  0  0
   -1.2607    4.4800   -0.6440 C   0  0  0  0  0  0  0  0  0  0  0  0
   -2.5052    4.3406   -0.0165 C   0  0  0  0  0  0  0  0  0  0  0  0
   -3.3715    5.4441    0.0803 C   0  0  0  0  0  0  0  0  0  0  0  0
   -4.6165    5.3299    0.6952 C   0  0  0  0  0  0  0  0  0  0  0  0
   -5.0118    4.1086    1.2208 C   0  0  0  0  0  0  0  0  0  0  0  0
   -4.1587    3.0060    1.1337 C   0  0  0  0  0  0  0  0  0  0  0  0
   -2.8853    3.0888    0.5179 C   0  0  0  0  0  0  0  0  0  0  0  0
   -1.9804    1.9860    0.4092 C   0  0  0  0  0  0  0  0  0  0  0  0
   -2.3383    0.6657    0.9943 C   0  0  0  0  0  0  0  0  0  0  0  0
   -2.9667   -0.3656    0.2353 C   0  0  0  0  0  0  0  0  0  0  0  0
   -3.3319   -0.2231   -1.1245 C   0  0  0  0  0  0  0  0  0  0  0  0
   -3.9398   -1.2603   -1.8532 C   0  0  0  0  0  0  0  0  0  0  0  0
   -4.2926   -1.1006   -3.2035 C   0  0  0  0  0  0  0  0  0  0  0  0
   -4.8961   -2.1405   -3.9127 C   0  0  0  0  0  0  0  0  0  0  0  0
   -5.1545   -3.3534   -3.2817 C   0  0  0  0  0  0  0  0  0  0  0  0
   -4.8092   -3.5267   -1.9406 C   0  0  0  0  0  0  0  0  0  0  0  0
   -4.2009   -2.4878   -1.2148 C   0  0  0  0  0  0  0  0  0  0  0  0
   -3.8463   -2.6432    0.1337 C   0  0  0  0  0  0  0  0  0  0  0  0
   -3.2370   -1.6064    0.8610 C   0  0  0  0  0  0  0  0  0  0  0  0
   -2.8915   -1.8014    2.2069 C   0  0  0  0  0  0  0  0  0  0  0  0
   -2.2811   -0.7916    2.9443 C   0  0  0  0  0  0  0  0  0  0  0  0
   -2.0060    0.4306    2.3426 C   0  0  0  0  0  0  0  0  0  0  0  0
   -0.7164    2.1488   -0.2453 C   0  0  0  0  0  0  0  0  0  0  0  0
    0.2256    1.1021   -0.4071 C   0  0  0  0  0  0  0  0  0  0  0  0
    1.4748    1.2504   -1.0601 C   0  0  0  0  0  0  0  0  0  0  0  0
    2.4270   -1.6176    0.5793 C   0  0  0  0  0  0  0  0  0  0  0  0
    3.1441   -0.8215    1.5037 C   0  0  0  0  0  0  0  0  0  0  0  0
    3.4764   -1.2777    2.7906 C   0  0  0  0  0  0  0  0  0  0  0  0
    4.1905   -0.4723    3.6934 C   0  0  0  0  0  0  0  0  0  0  0  0
    4.5125   -0.9405    4.9681 C   0  0  0  0  0  0  0  0  0  0  0  0
    4.3744   -2.5864    6.3484 H   0  0  0  0  0  0  0  0  0  0  0  0
    3.1192   -4.0265    4.7907 H   0  0  0  0  0  0  0  0  0  0  0  0
    2.0654   -4.3714    2.5837 H   0  0  0  0  0  0  0  0  0  0  0  0
    1.0108   -4.7374    0.4254 H   0  0  0  0  0  0  0  0  0  0  0  0
    0.4104   -3.9532   -1.8268 H   0  0  0  0  0  0  0  0  0  0  0  0
    1.0732   -1.7022   -2.5791 H   0  0  0  0  0  0  0  0  0  0  0  0
    4.4758   -1.6030   -1.7436 H   0  0  0  0  0  0  0  0  0  0  0  0
    6.5822   -1.1095   -2.8777 H   0  0  0  0  0  0  0  0  0  0  0  0
    7.0521    1.1816   -3.7097 H   0  0  0  0  0  0  0  0  0  0  0  0
    5.3922    2.9682   -3.3945 H   0  0  0  0  0  0  0  0  0  0  0  0
    3.2456    3.7339   -2.5809 H   0  0  0  0  0  0  0  0  0  0  0  0
    1.1268    4.5632   -1.8007 H   0  0  0  0  0  0  0  0  0  0  0  0
   -0.9796    5.4507   -1.0507 H   0  0  0  0  0  0  0  0  0  0  0  0
   -3.0798    6.4096   -0.3283 H   0  0  0  0  0  0  0  0  0  0  0  0
   -5.2747    6.1921    0.7600 H   0  0  0  0  0  0  0  0  0  0  0  0
   -5.9827    4.0053    1.6978 H   0  0  0  0  0  0  0  0  0  0  0  0
   -4.5068    2.0643    1.5547 H   0  0  0  0  0  0  0  0  0  0  0  0
   -3.1363    0.7198   -1.6331 H   0  0  0  0  0  0  0  0  0  0  0  0
   -4.0983   -0.1592   -3.7131 H   0  0  0  0  0  0  0  0  0  0  0  0
   -5.1639   -2.0002   -4.9564 H   0  0  0  0  0  0  0  0  0  0  0  0
   -5.6240   -4.1643   -3.8317 H   0  0  0  0  0  0  0  0  0  0  0  0
   -5.0189   -4.4809   -1.4630 H   0  0  0  0  0  0  0  0  0  0  0  0
   -4.0475   -3.5927    0.6266 H   0  0  0  0  0  0  0  0  0  0  0  0
   -3.0931   -2.7529    2.6946 H   0  0  0  0  0  0  0  0  0  0  0  0
   -2.0132   -0.9595    3.9840 H   0  0  0  0  0  0  0  0  0  0  0  0
   -1.5161    1.2102    2.9237 H   0  0  0  0  0  0  0  0  0  0  0  0
   -0.0277    0.1209   -0.0070 H   0  0  0  0  0  0  0  0  0  0  0  0
    3.4541    0.1822    1.2163 H   0  0  0  0  0  0  0  0  0  0  0  0
    4.5013    0.5302    3.4071 H   0  0  0  0  0  0  0  0  0  0  0  0
    5.0648   -0.3054    5.6555 H   0  0  0  0  0  0  0  0  0  0  0  0
  1  2  4  0
  2  3  4  0
  3  4  4  0
  4  5  4  0
  5  6  4  0
  6  7  4  0
  7  8  4  0
  8  9  4  0
  9 10  1  0
 10 11  4  0
 11 12  4  0
 12 13  4  0
 13 14  4  0
 14 15  4  0
 15 16  4  0
 16 17  4  0
 17 18  4  0
 18 19  4  0
 19 20  4  0
 20 21  4  0
 21 22  4  0
 22 23  4  0
 23 24  4  0
 24 25  4  0
 25 26  4  0
 26 27  4  0
 27 28  4  0
 28 29  1  0
 29 30  4  0
 30 31  4  0
 31 32  4  0
 32 33  4  0
 33 34  4  0
 34 35  4  0
 35 36  4  0
 36 37  4  0
 37 38  4  0
 38 39  4  0
 39 40  4  0
 40 41  4  0
 41 42  4  0
 28 43  4  0
 43 44  4  0
 44 45  4  0
  9 46  4  0
 46 47  4  0
 47 48  4  0
 48 49  4  0
 49 50  4  0
 50  1  4  0
 48  3  4  0
 46  5  4  0
 45 10  4  0
 16 11  4  0
 45 18  4  0
 43 20  4  0
 27 22  4  0
 42 29  4  0
 39 30  4  0
 37 32  4  0
  1 51  1  0
  2 52  1  0
  4 53  1  0
  6 54  1  0
  7 55  1  0
  8 56  1  0
 12 57  1  0
 13 58  1  0
 14 59  1  0
 15 60  1  0
 17 61  1  0
 19 62  1  0
 21 63  1  0
 23 64  1  0
 24 65  1  0
 25 66  1  0
 26 67  1  0
 31 68  1  0
 33 69  1  0
 34 70  1  0
 35 71  1  0
 36 72  1  0
 38 73  1  0
 40 74  1  0
 41 75  1  0
 42 76  1  0
 44 77  1  0
 47 78  1  0
 49 79  1  0
 50 80  1  0
M  END
