
     RDKit          3D

100114  0  0  0  0  0  0  0  0999 V2000
    3.3767    7.1182   -0.8117 C   0  0  0  0  0  0  0  0  0  0  0  0
    3.2117    6.5793   -2.0844 C   0  0  0  0  0  0  0  0  0  0  0  0
    3.0644    5.2009   -2.2436 C   0  0  0  0  0  0  0  0  0  0  0  0
    3.0791    4.3454   -1.1295 C   0  0  0  0  0  0  0  0  0  0  0  0
    2.9328    2.9569   -1.2648 C   0  0  0  0  0  0  0  0  0  0  0  0
    2.9515    2.1095   -0.1648 C   0  0  0  0  0  0  0  0  0  0  0  0
    2.8210    0.7851   -0.3463 N   0  0  0  0  0  0  0  0  0  0  0  0
    2.8541   -0.0277    0.7353 C   0  0  0  0  0  0  0  0  0  0  0  0
    3.0136    0.5330    2.0183 C   0  0  0  0  0  0  0  0  0  0  0  0
    3.1394    1.8593    2.2075 N   0  0  0  0  0  0  0  0  0  0  0  0
    3.1158    2.6515    1.1216 C   0  0  0  0  0  0  0  0  0  0  0  0
    3.2637    4.0260    1.2645 C   0  0  0  0  0  0  0  0  0  0  0  0
    3.2474    4.8903    0.1586 C   0  0  0  0  0  0  0  0  0  0  0  0
    3.3953    6.2796    0.3040 C   0  0  0  0  0  0  0  0  0  0  0  0
    3.0597   -0.2920    3.1294 C   0  0  0  0  0  0  0  0  0  0  0  0
    2.9702   -1.6843    3.0304 C   0  0  0  0  0  0  0  0  0  0  0  0
    3.0524   -2.4858    4.1840 C   0  0  0  0  0  0  0  0  0  0  0  0
    2.9712   -3.8742    4.1008 C   0  0  0  0  0  0  0  0  0  0  0  0
    2.8024   -4.4771    2.8630 C   0  0  0  0  0  0  0  0  0  0  0  0
    2.7226   -3.6904    1.7114 C   0  0  0  0  0  0  0  0  0  0  0  0
    2.8079   -2.2768    1.7611 C   0  0  0  0  0  0  0  0  0  0  0  0
    2.7472   -1.4291    0.6080 C   0  0  0  0  0  0  0  0  0  0  0  0
    2.5809   -2.0239   -0.7541 C   0  0  0  0  0  0  0  0  0  0  0  0
    3.7362   -2.3484   -1.5365 C   0  0  0  0  0  0  0  0  0  0  0  0
    5.0677   -2.0764   -1.1333 C   0  0  0  0  0  0  0  0  0  0  0  0
    6.1662   -2.4136   -1.9276 C   0  0  0  0  0  0  0  0  0  0  0  0
    5.9674   -3.0350   -3.1512 C   0  0  0  0  0  0  0  0  0  0  0  0
    4.6714   -3.3190   -3.5757 C   0  0  0  0  0  0  0  0  0  0  0  0
    3.5583   -2.9860   -2.7844 C   0  0  0  0  0  0  0  0  0  0  0  0
    2.2681   -3.3000   -3.2278 C   0  0  0  0  0  0  0  0  0  0  0  0
    1.1300   -2.9887   -2.4732 C   0  0  0  0  0  0  0  0  0  0  0  0
   -0.1451   -3.3558   -2.9333 C   0  0  0  0  0  0  0  0  0  0  0  0
   -1.3106   -3.0800   -2.2001 C   0  0  0  0  0  0  0  0  0  0  0  0
   -2.5575   -3.5094   -2.6728 C   0  0  0  0  0  0  0  0  0  0  0  0
   -3.7408   -3.2711   -1.9636 C   0  0  0  0  0  0  0  0  0  0  0  0
   -4.9672   -3.7402   -2.4679 C   0  0  0  0  0  0  0  0  0  0  0  0
   -6.1596   -3.5223   -1.7814 C   0  0  0  0  0  0  0  0  0  0  0  0
   -6.1402   -2.8306   -0.5800 C   0  0  0  0  0  0  0  0  0  0  0  0
   -4.9282   -2.3572   -0.0709 C   0  0  0  0  0  0  0  0  0  0  0  0
   -3.6967   -2.5587   -0.7447 C   0  0  0  0  0  0  0  0  0  0  0  0
   -2.4311   -2.0879   -0.2628 C   0  0  0  0  0  0  0  0  0  0  0  0
   -2.3658   -1.2699    0.9880 C   0  0  0  0  0  0  0  0  0  0  0  0
   -1.9680   -1.8548    2.2306 C   0  0  0  0  0  0  0  0  0  0  0  0
   -1.6319   -3.2213    2.3919 C   0  0  0  0  0  0  0  0  0  0  0  0
   -1.2113   -3.7366    3.6194 C   0  0  0  0  0  0  0  0  0  0  0  0
   -1.1251   -2.9025    4.7245 C   0  0  0  0  0  0  0  0  0  0  0  0
   -1.4672   -1.5578    4.6023 C   0  0  0  0  0  0  0  0  0  0  0  0
   -1.8867   -1.0280    3.3704 C   0  0  0  0  0  0  0  0  0  0  0  0
   -2.2228    0.3257    3.2652 C   0  0  0  0  0  0  0  0  0  0  0  0
   -2.6225    0.8966    2.0694 C   0  0  0  0  0  0  0  0  0  0  0  0
   -2.9389    2.2053    2.0623 N   0  0  0  0  0  0  0  0  0  0  0  0
   -3.3082    2.7535    0.8923 C   0  0  0  0  0  0  0  0  0  0  0  0
   -3.6370    4.1021    0.8337 C   0  0  0  0  0  0  0  0  0  0  0  0
   -4.0265    4.7156   -0.3668 C   0  0  0  0  0  0  0  0  0  0  0  0
   -4.3581    6.0790   -0.4255 C   0  0  0  0  0  0  0  0  0  0  0  0
   -4.7418    6.6669   -1.6318 C   0  0  0  0  0  0  0  0  0  0  0  0
   -4.7980    5.9004   -2.7922 C   0  0  0  0  0  0  0  0  0  0  0  0
   -4.4709    4.5444   -2.7486 C   0  0  0  0  0  0  0  0  0  0  0  0
   -4.0838    3.9400   -1.5416 C   0  0  0  0  0  0  0  0  0  0  0  0
   -3.7505    2.5795   -1.4732 C   0  0  0  0  0  0  0  0  0  0  0  0
   -3.3673    1.9816   -0.2803 C   0  0  0  0  0  0  0  0  0  0  0  0
   -3.0604    0.6751   -0.2642 N   0  0  0  0  0  0  0  0  0  0  0  0
   -2.6858    0.1051    0.9058 C   0  0  0  0  0  0  0  0  0  0  0  0
   -1.2265   -2.3746   -0.9878 C   0  0  0  0  0  0  0  0  0  0  0  0
    0.0720   -2.0024   -0.5513 C   0  0  0  0  0  0  0  0  0  0  0  0
    1.2670   -2.3225   -1.2440 C   0  0  0  0  0  0  0  0  0  0  0  0
    3.4913    8.1920   -0.6861 H   0  0  0  0  0  0  0  0  0  0  0  0
    3.1973    7.2316   -2.9540 H   0  0  0  0  0  0  0  0  0  0  0  0
    2.9368    4.7950   -3.2455 H   0  0  0  0  0  0  0  0  0  0  0  0
    2.8031    2.5122   -2.2494 H   0  0  0  0  0  0  0  0  0  0  0  0
    3.3999    4.4264    2.2668 H   0  0  0  0  0  0  0  0  0  0  0  0
    3.5260    6.7200    1.2904 H   0  0  0  0  0  0  0  0  0  0  0  0
    3.1807    0.1779    4.1038 H   0  0  0  0  0  0  0  0  0  0  0  0
    3.1891   -2.0309    5.1636 H   0  0  0  0  0  0  0  0  0  0  0  0
    3.0417   -4.4813    4.9996 H   0  0  0  0  0  0  0  0  0  0  0  0
    2.7367   -5.5591    2.7848 H   0  0  0  0  0  0  0  0  0  0  0  0
    2.5961   -4.2031    0.7592 H   0  0  0  0  0  0  0  0  0  0  0  0
    5.2669   -1.5830   -0.1846 H   0  0  0  0  0  0  0  0  0  0  0  0
    7.1723   -2.1844   -1.5866 H   0  0  0  0  0  0  0  0  0  0  0  0
    6.8167   -3.2982   -3.7756 H   0  0  0  0  0  0  0  0  0  0  0  0
    4.5354   -3.8084   -4.5379 H   0  0  0  0  0  0  0  0  0  0  0  0
    2.1463   -3.8042   -4.1855 H   0  0  0  0  0  0  0  0  0  0  0  0
   -0.2313   -3.8859   -3.8812 H   0  0  0  0  0  0  0  0  0  0  0  0
   -2.6072   -4.0545   -3.6144 H   0  0  0  0  0  0  0  0  0  0  0  0
   -5.0021   -4.2838   -3.4097 H   0  0  0  0  0  0  0  0  0  0  0  0
   -7.0983   -3.8907   -2.1859 H   0  0  0  0  0  0  0  0  0  0  0  0
   -7.0635   -2.6524   -0.0352 H   0  0  0  0  0  0  0  0  0  0  0  0
   -4.9587   -1.8184    0.8735 H   0  0  0  0  0  0  0  0  0  0  0  0
   -1.6839   -3.9062    1.5472 H   0  0  0  0  0  0  0  0  0  0  0  0
   -0.9464   -4.7872    3.7043 H   0  0  0  0  0  0  0  0  0  0  0  0
   -0.7905   -3.2950    5.6805 H   0  0  0  0  0  0  0  0  0  0  0  0
   -1.3967   -0.9201    5.4816 H   0  0  0  0  0  0  0  0  0  0  0  0
   -2.1724    0.9687    4.1425 H   0  0  0  0  0  0  0  0  0  0  0  0
   -3.5817    4.6825    1.7517 H   0  0  0  0  0  0  0  0  0  0  0  0
   -4.3197    6.6943    0.4710 H   0  0  0  0  0  0  0  0  0  0  0  0
   -4.9963    7.7232   -1.6647 H   0  0  0  0  0  0  0  0  0  0  0  0
   -5.0962    6.3570   -3.7326 H   0  0  0  0  0  0  0  0  0  0  0  0
   -4.5200    3.9605   -3.6656 H   0  0  0  0  0  0  0  0  0  0  0  0
   -3.7849    1.9594   -2.3667 H   0  0  0  0  0  0  0  0  0  0  0  0
    0.1600   -1.4476    0.3803 H   0  0  0  0  0  0  0  0  0  0  0  0
  1  2  4  0
  2  3  4  0
  3  4  4  0
  4  5  4  0
  5  6  4  0
  6  7  4  0
  7  8  4  0
  8  9  4  0
  9 10  4  0
 10 11  4  0
 11 12  4  0
 12 13  4  0
 13 14  4  0
  9 15  4  0
 15 16  4  0
 16 17  4  0
 17 18  4  0
 18 19  4  0
 19 20  4  0
 20 21  4  0
 21 22  4  0
 22 23  1  0
 23 24  4  0
 24 25  4  0
 25 26  4  0
 26 27  4  0
 27 28  4  0
 28 29  4  0
 29 30  4  0
 30 31  4  0
 31 32  4  0
 32 33  4  0
 33 34  4  0
 34 35  4  0
 35 36  4  0
 36 37  4  0
 37 38  4  0
 38 39  4  0
 39 40  4  0
 40 41  4  0
 41 42  1  0
 42 43  4  0
 43 44  4  0
 44 45  4  0
 45 46  4  0
 46 47  4  0
 47 48  4  0
 48 49  4  0
 49 50  4  0
 50 51  4  0
 51 52  4  0
 52 53  4  0
 53 54  4  0
 54 55  4  0
 55 56  4  0
 56 57  4  0
 57 58  4  0
 58 59  4  0
 59 60  4  0
 60 61  4  0
 61 62  4  0
 62 63  4  0
 41 64  4  0
 64 65  4  0
 65 66  4  0
 14  1  4  0
 21 16  4  0
 66 23  4  0
 13  4  4  0
 29 24  4  0
 66 31  4  0
 11  6  4  0
 64 33  4  0
 22  8  4  0
 40 35  4  0
 63 42  4  0
 48 43  4  0
 63 50  4  0
 61 52  4  0
 59 54  4  0
  1 67  1  0
  2 68  1  0
  3 69  1  0
  5 70  1  0
 12 71  1  0
 14 72  1  0
 15 73  1  0
 17 74  1  0
 18 75  1  0
 19 76  1  0
 20 77  1  0
 25 78  1  0
 26 79  1  0
 27 80  1  0
 28 81  1  0
 30 82  1  0
 32 83  1  0
 34 84  1  0
 36 85  1  0
 37 86  1  0
 38 87  1  0
 39 88  1  0
 44 89  1  0
 45 90  1  0
 46 91  1  0
 47 92  1  0
 49 93  1  0
 53 94  1  0
 55 95  1  0
 56 96  1  0
 57 97  1  0
 58 98  1  0
 60 99  1  0
 65100  1  0
M  END
