
     RDKit          3D

100114  0  0  0  0  0  0  0  0999 V2000
   -7.1045    1.7716   -9.5201 C   0  0  0  0  0  0  0  0  0  0  0  0
   -6.4428    2.5574   -8.5755 C   0  0  0  0  0  0  0  0  0  0  0  0
   -5.9734    1.9939   -7.3781 C   0  0  0  0  0  0  0  0  0  0  0  0
   -5.3065    2.7640   -6.4134 C   0  0  0  0  0  0  0  0  0  0  0  0
   -4.8433    2.2095   -5.2276 C   0  0  0  0  0  0  0  0  0  0  0  0
   -4.2115    2.9901   -4.3321 N   0  0  0  0  0  0  0  0  0  0  0  0
   -3.7820    2.4092   -3.1952 C   0  0  0  0  0  0  0  0  0  0  0  0
   -3.1264    3.1708   -2.2378 C   0  0  0  0  0  0  0  0  0  0  0  0
   -2.6737    2.6215   -1.0263 C   0  0  0  0  0  0  0  0  0  0  0  0
   -2.0194    3.4253   -0.0804 C   0  0  0  0  0  0  0  0  0  0  0  0
   -1.5929    2.8977    1.1355 C   0  0  0  0  0  0  0  0  0  0  0  0
   -1.8123    1.5548    1.4219 C   0  0  0  0  0  0  0  0  0  0  0  0
   -2.4462    0.7129    0.4898 C   0  0  0  0  0  0  0  0  0  0  0  0
   -2.6384   -0.7204    0.8401 C   0  0  0  0  0  0  0  0  0  0  0  0
   -3.9092   -1.1711    1.3257 C   0  0  0  0  0  0  0  0  0  0  0  0
   -5.0146   -0.3156    1.5649 C   0  0  0  0  0  0  0  0  0  0  0  0
   -6.2404   -0.7993    2.0275 C   0  0  0  0  0  0  0  0  0  0  0  0
   -6.3989   -2.1556    2.2686 C   0  0  0  0  0  0  0  0  0  0  0  0
   -5.3322   -3.0234    2.0460 C   0  0  0  0  0  0  0  0  0  0  0  0
   -4.0938   -2.5480    1.5796 C   0  0  0  0  0  0  0  0  0  0  0  0
   -3.0403   -3.4426    1.3567 C   0  0  0  0  0  0  0  0  0  0  0  0
   -1.7868   -3.0131    0.9012 C   0  0  0  0  0  0  0  0  0  0  0  0
   -0.7586   -3.9446    0.6838 C   0  0  0  0  0  0  0  0  0  0  0  0
    0.5153   -3.5598    0.2348 C   0  0  0  0  0  0  0  0  0  0  0  0
    1.5043   -4.5270    0.0163 C   0  0  0  0  0  0  0  0  0  0  0  0
    2.7869   -4.1877   -0.4303 C   0  0  0  0  0  0  0  0  0  0  0  0
    3.7440   -5.1945   -0.6467 C   0  0  0  0  0  0  0  0  0  0  0  0
    5.0287   -4.8837   -1.0865 C   0  0  0  0  0  0  0  0  0  0  0  0
    5.3719   -3.5606   -1.3191 C   0  0  0  0  0  0  0  0  0  0  0  0
    4.4296   -2.5520   -1.1069 C   0  0  0  0  0  0  0  0  0  0  0  0
    3.1155   -2.8329   -0.6539 C   0  0  0  0  0  0  0  0  0  0  0  0
    2.1222   -1.8299   -0.4085 C   0  0  0  0  0  0  0  0  0  0  0  0
    2.4745   -0.3914   -0.5518 C   0  0  0  0  0  0  0  0  0  0  0  0
    3.1632    0.3237    0.4762 C   0  0  0  0  0  0  0  0  0  0  0  0
    3.5775   -0.2563    1.6992 C   0  0  0  0  0  0  0  0  0  0  0  0
    4.2774    0.4483    2.6721 C   0  0  0  0  0  0  0  0  0  0  0  0
    4.6612   -0.1736    3.8028 N   0  0  0  0  0  0  0  0  0  0  0  0
    5.3422    0.5465    4.7108 C   0  0  0  0  0  0  0  0  0  0  0  0
    5.7594   -0.0588    5.8888 C   0  0  0  0  0  0  0  0  0  0  0  0
    6.4735    0.6466    6.8685 C   0  0  0  0  0  0  0  0  0  0  0  0
    6.8945    0.0323    8.0591 C   0  0  0  0  0  0  0  0  0  0  0  0
    7.6041    0.7540    9.0197 C   0  0  0  0  0  0  0  0  0  0  0  0
    7.9013    2.0962    8.8019 C   0  0  0  0  0  0  0  0  0  0  0  0
    7.4893    2.7193    7.6231 C   0  0  0  0  0  0  0  0  0  0  0  0
    6.7740    2.0053    6.6477 C   0  0  0  0  0  0  0  0  0  0  0  0
    6.3490    2.6100    5.4547 C   0  0  0  0  0  0  0  0  0  0  0  0
    5.6419    1.9057    4.4885 C   0  0  0  0  0  0  0  0  0  0  0  0
    5.2564    2.5288    3.3596 N   0  0  0  0  0  0  0  0  0  0  0  0
    4.5769    1.8042    2.4503 C   0  0  0  0  0  0  0  0  0  0  0  0
    4.1624    2.3991    1.2664 C   0  0  0  0  0  0  0  0  0  0  0  0
    3.4670    1.6877    0.2747 C   0  0  0  0  0  0  0  0  0  0  0  0
    3.0803    2.3223   -0.9154 C   0  0  0  0  0  0  0  0  0  0  0  0
    2.4150    1.6216   -1.9172 C   0  0  0  0  0  0  0  0  0  0  0  0
    2.1192    0.2744   -1.7396 C   0  0  0  0  0  0  0  0  0  0  0  0
    0.8015   -2.2026    0.0103 C   0  0  0  0  0  0  0  0  0  0  0  0
   -0.2582   -1.2815    0.2219 C   0  0  0  0  0  0  0  0  0  0  0  0
   -1.5608   -1.6485    0.6534 C   0  0  0  0  0  0  0  0  0  0  0  0
   -2.8848    1.2512   -0.7585 C   0  0  0  0  0  0  0  0  0  0  0  0
   -3.5352    0.4899   -1.7578 C   0  0  0  0  0  0  0  0  0  0  0  0
   -3.9866    1.0393   -2.9518 C   0  0  0  0  0  0  0  0  0  0  0  0
   -4.6164    0.2583   -3.8490 N   0  0  0  0  0  0  0  0  0  0  0  0
   -5.0463    0.8357   -4.9846 C   0  0  0  0  0  0  0  0  0  0  0  0
   -5.7042    0.0671   -5.9356 C   0  0  0  0  0  0  0  0  0  0  0  0
   -6.1757    0.6210   -7.1350 C   0  0  0  0  0  0  0  0  0  0  0  0
   -6.8425   -0.1579   -8.0945 C   0  0  0  0  0  0  0  0  0  0  0  0
   -7.3041    0.4154   -9.2798 C   0  0  0  0  0  0  0  0  0  0  0  0
   -7.4636    2.2193  -10.4434 H   0  0  0  0  0  0  0  0  0  0  0  0
   -6.2964    3.6157   -8.7818 H   0  0  0  0  0  0  0  0  0  0  0  0
   -5.1402    3.8258   -6.5816 H   0  0  0  0  0  0  0  0  0  0  0  0
   -2.9755    4.2279   -2.4486 H   0  0  0  0  0  0  0  0  0  0  0  0
   -1.8349    4.4783   -0.2846 H   0  0  0  0  0  0  0  0  0  0  0  0
   -1.0894    3.5327    1.8602 H   0  0  0  0  0  0  0  0  0  0  0  0
   -1.4764    1.1530    2.3767 H   0  0  0  0  0  0  0  0  0  0  0  0
   -4.9325    0.7554    1.3892 H   0  0  0  0  0  0  0  0  0  0  0  0
   -7.0664   -0.1131    2.1947 H   0  0  0  0  0  0  0  0  0  0  0  0
   -7.3500   -2.5400    2.6268 H   0  0  0  0  0  0  0  0  0  0  0  0
   -5.4777   -4.0845    2.2389 H   0  0  0  0  0  0  0  0  0  0  0  0
   -3.2007   -4.5036    1.5456 H   0  0  0  0  0  0  0  0  0  0  0  0
   -0.9563   -5.0003    0.8671 H   0  0  0  0  0  0  0  0  0  0  0  0
    1.2691   -5.5755    0.1957 H   0  0  0  0  0  0  0  0  0  0  0  0
    3.4938   -6.2388   -0.4707 H   0  0  0  0  0  0  0  0  0  0  0  0
    5.7574   -5.6737   -1.2460 H   0  0  0  0  0  0  0  0  0  0  0  0
    6.3706   -3.3060   -1.6638 H   0  0  0  0  0  0  0  0  0  0  0  0
    4.7389   -1.5273   -1.3038 H   0  0  0  0  0  0  0  0  0  0  0  0
    3.3609   -1.3027    1.9082 H   0  0  0  0  0  0  0  0  0  0  0  0
    5.5170   -1.1094    6.0365 H   0  0  0  0  0  0  0  0  0  0  0  0
    6.6720   -1.0162    8.2468 H   0  0  0  0  0  0  0  0  0  0  0  0
    7.9247    0.2676    9.9375 H   0  0  0  0  0  0  0  0  0  0  0  0
    8.4543    2.6594    9.5494 H   0  0  0  0  0  0  0  0  0  0  0  0
    7.7318    3.7692    7.4715 H   0  0  0  0  0  0  0  0  0  0  0  0
    6.5713    3.6577    5.2644 H   0  0  0  0  0  0  0  0  0  0  0  0
    4.4028    3.4498    1.1162 H   0  0  0  0  0  0  0  0  0  0  0  0
    3.3013    3.3762   -1.0750 H   0  0  0  0  0  0  0  0  0  0  0  0
    2.1269    2.1266   -2.8356 H   0  0  0  0  0  0  0  0  0  0  0  0
    1.5995   -0.2654   -2.5300 H   0  0  0  0  0  0  0  0  0  0  0  0
   -0.0598   -0.2267    0.0397 H   0  0  0  0  0  0  0  0  0  0  0  0
   -3.7130   -0.5736   -1.6065 H   0  0  0  0  0  0  0  0  0  0  0  0
   -5.8501   -0.9907   -5.7269 H   0  0  0  0  0  0  0  0  0  0  0  0
   -7.0078   -1.2197   -7.9238 H   0  0  0  0  0  0  0  0  0  0  0  0
   -7.8193   -0.1976  -10.0151 H   0  0  0  0  0  0  0  0  0  0  0  0
  1  2  4  0
  2  3  4  0
  3  4  4  0
  4  5  4  0
  5  6  4  0
  6  7  4  0
  7  8  4  0
  8  9  4  0
  9 10  4  0
 10 11  4  0
 11 12  4  0
 12 13  4  0
 13 14  1  0
 14 15  4  0
 15 16  4  0
 16 17  4  0
 17 18  4  0
 18 19  4  0
 19 20  4  0
 20 21  4  0
 21 22  4  0
 22 23  4  0
 23 24  4  0
 24 25  4  0
 25 26  4  0
 26 27  4  0
 27 28  4  0
 28 29  4  0
 29 30  4  0
 30 31  4  0
 31 32  4  0
 32 33  1  0
 33 34  4  0
 34 35  4  0
 35 36  4  0
 36 37  4  0
 37 38  4  0
 38 39  4  0
 39 40  4  0
 40 41  4  0
 41 42  4  0
 42 43  4  0
 43 44  4  0
 44 45  4  0
 45 46  4  0
 46 47  4  0
 47 48  4  0
 48 49  4  0
 49 50  4  0
 50 51  4  0
 51 52  4  0
 52 53  4  0
 53 54  4  0
 32 55  4  0
 55 56  4  0
 56 57  4  0
 13 58  4  0
 58 59  4  0
 59 60  4  0
 60 61  4  0
 61 62  4  0
 62 63  4  0
 63 64  4  0
 64 65  4  0
 65 66  4  0
 66  1  4  0
 64  3  4  0
 62  5  4  0
 60  7  4  0
 58  9  4  0
 57 14  4  0
 20 15  4  0
 57 22  4  0
 55 24  4  0
 31 26  4  0
 54 33  4  0
 51 34  4  0
 49 36  4  0
 47 38  4  0
 45 40  4  0
  1 67  1  0
  2 68  1  0
  4 69  1  0
  8 70  1  0
 10 71  1  0
 11 72  1  0
 12 73  1  0
 16 74  1  0
 17 75  1  0
 18 76  1  0
 19 77  1  0
 21 78  1  0
 23 79  1  0
 25 80  1  0
 27 81  1  0
 28 82  1  0
 29 83  1  0
 30 84  1  0
 35 85  1  0
 39 86  1  0
 41 87  1  0
 42 88  1  0
 43 89  1  0
 44 90  1  0
 46 91  1  0
 50 92  1  0
 52 93  1  0
 53 94  1  0
 54 95  1  0
 56 96  1  0
 59 97  1  0
 63 98  1  0
 65 99  1  0
 66100  1  0
M  END
