
     RDKit          3D

102114  0  0  0  0  0  0  0  0999 V2000
    1.3923    0.0451   -2.4240 C   0  0  0  0  0  0  0  0  0  0  0  0
    1.5006    1.4048   -2.0397 C   0  0  0  0  0  0  0  0  0  0  0  0
    2.1794    1.8762   -0.8490 C   0  0  0  0  0  0  0  0  0  0  0  0
    2.1179    3.3146   -0.4843 C   0  0  0  0  0  0  0  0  0  0  0  0
    3.2266    4.1753   -0.7469 C   0  0  0  0  0  0  0  0  0  0  0  0
    4.3792    3.7750   -1.4666 C   0  0  0  0  0  0  0  0  0  0  0  0
    5.4443    4.6477   -1.6985 C   0  0  0  0  0  0  0  0  0  0  0  0
    5.3889    5.9473   -1.2161 C   0  0  0  0  0  0  0  0  0  0  0  0
    4.2692    6.3708   -0.5026 C   0  0  0  0  0  0  0  0  0  0  0  0
    3.1897    5.5024   -0.2626 C   0  0  0  0  0  0  0  0  0  0  0  0
    2.0803    5.9458    0.4708 C   0  0  0  0  0  0  0  0  0  0  0  0
    0.9789    5.1164    0.7229 C   0  0  0  0  0  0  0  0  0  0  0  0
   -0.1095    5.5796    1.4842 C   0  0  0  0  0  0  0  0  0  0  0  0
   -1.2392    4.7805    1.7364 C   0  0  0  0  0  0  0  0  0  0  0  0
   -2.2975    5.2650    2.5164 C   0  0  0  0  0  0  0  0  0  0  0  0
   -3.4480    4.5022    2.7593 C   0  0  0  0  0  0  0  0  0  0  0  0
   -4.4817    5.0232    3.5574 C   0  0  0  0  0  0  0  0  0  0  0  0
   -5.6431    4.2920    3.7985 C   0  0  0  0  0  0  0  0  0  0  0  0
   -5.7870    3.0294    3.2421 C   0  0  0  0  0  0  0  0  0  0  0  0
   -4.7679    2.5007    2.4466 C   0  0  0  0  0  0  0  0  0  0  0  0
   -3.5728    3.2161    2.1860 C   0  0  0  0  0  0  0  0  0  0  0  0
   -2.5064    2.7141    1.3778 C   0  0  0  0  0  0  0  0  0  0  0  0
   -2.6644    1.4318    0.6429 C   0  0  0  0  0  0  0  0  0  0  0  0
   -2.1866    0.2184    1.2120 C   0  0  0  0  0  0  0  0  0  0  0  0
   -2.3795   -0.8591    0.3463 C   0  0  0  0  0  0  0  0  0  0  0  0
   -2.0266   -2.1759    0.5376 C   0  0  0  0  0  0  0  0  0  0  0  0
   -1.3469   -2.9491    1.5668 C   0  0  0  0  0  0  0  0  0  0  0  0
   -1.8420   -4.2041    1.9516 C   0  0  0  0  0  0  0  0  0  0  0  0
   -1.1973   -4.9547    2.9379 C   0  0  0  0  0  0  0  0  0  0  0  0
   -0.0424   -4.4626    3.5418 C   0  0  0  0  0  0  0  0  0  0  0  0
    0.4664   -3.2224    3.1616 C   0  0  0  0  0  0  0  0  0  0  0  0
   -0.1830   -2.4684    2.1800 C   0  0  0  0  0  0  0  0  0  0  0  0
   -2.4258   -2.9037   -0.5604 O   0  0  0  0  0  0  0  0  0  0  0  0
   -3.0165   -2.0516   -1.4640 C   0  0  0  0  0  0  0  0  0  0  0  0
   -3.4982   -2.6817   -2.6866 C   0  0  0  0  0  0  0  0  0  0  0  0
   -2.7430   -3.6842   -3.3112 C   0  0  0  0  0  0  0  0  0  0  0  0
   -3.1858   -4.2835   -4.4928 C   0  0  0  0  0  0  0  0  0  0  0  0
   -4.3957   -3.8920   -5.0611 C   0  0  0  0  0  0  0  0  0  0  0  0
   -5.1639   -2.9059   -4.4460 C   0  0  0  0  0  0  0  0  0  0  0  0
   -4.7185   -2.3061   -3.2645 C   0  0  0  0  0  0  0  0  0  0  0  0
   -3.0003   -0.7797   -0.9388 C   0  0  0  0  0  0  0  0  0  0  0  0
   -3.4739    0.3850   -1.5305 C   0  0  0  0  0  0  0  0  0  0  0  0
   -3.2766    1.4909   -0.6736 C   0  0  0  0  0  0  0  0  0  0  0  0
   -1.3170    3.4891    1.1897 C   0  0  0  0  0  0  0  0  0  0  0  0
   -0.1921    3.0311    0.4624 C   0  0  0  0  0  0  0  0  0  0  0  0
    0.9712    3.8045    0.2220 C   0  0  0  0  0  0  0  0  0  0  0  0
    2.8454    0.9993    0.0531 C   0  0  0  0  0  0  0  0  0  0  0  0
    2.7150   -0.3305   -0.3326 C   0  0  0  0  0  0  0  0  0  0  0  0
    3.1688   -1.4463    0.3321 C   0  0  0  0  0  0  0  0  0  0  0  0
    3.8570   -1.7319    1.5853 C   0  0  0  0  0  0  0  0  0  0  0  0
    3.6033   -0.9785    2.7402 C   0  0  0  0  0  0  0  0  0  0  0  0
    4.2511   -1.2735    3.9431 C   0  0  0  0  0  0  0  0  0  0  0  0
    5.1588   -2.3279    4.0067 C   0  0  0  0  0  0  0  0  0  0  0  0
    5.4186   -3.0890    2.8695 C   0  0  0  0  0  0  0  0  0  0  0  0
    4.7693   -2.7940    1.6679 C   0  0  0  0  0  0  0  0  0  0  0  0
    2.8176   -2.5566   -0.3987 O   0  0  0  0  0  0  0  0  0  0  0  0
    2.1135   -2.1549   -1.5106 C   0  0  0  0  0  0  0  0  0  0  0  0
    1.6543   -3.2418   -2.3641 C   0  0  0  0  0  0  0  0  0  0  0  0
    1.1595   -4.4240   -1.7926 C   0  0  0  0  0  0  0  0  0  0  0  0
    0.7256   -5.4802   -2.5971 C   0  0  0  0  0  0  0  0  0  0  0  0
    0.7829   -5.3675   -3.9843 C   0  0  0  0  0  0  0  0  0  0  0  0
    1.2719   -4.1994   -4.5663 C   0  0  0  0  0  0  0  0  0  0  0  0
    1.7060   -3.1425   -3.7605 C   0  0  0  0  0  0  0  0  0  0  0  0
    2.0362   -0.7809   -1.5064 C   0  0  0  0  0  0  0  0  0  0  0  0
    0.8442   -0.2794   -3.2971 H   0  0  0  0  0  0  0  0  0  0  0  0
    1.0066    2.1474   -2.6703 H   0  0  0  0  0  0  0  0  0  0  0  0
    4.4570    2.7647   -1.8648 H   0  0  0  0  0  0  0  0  0  0  0  0
    6.3127    4.3072   -2.2563 H   0  0  0  0  0  0  0  0  0  0  0  0
    6.2144    6.6315   -1.3926 H   0  0  0  0  0  0  0  0  0  0  0  0
    4.2460    7.3930   -0.1302 H   0  0  0  0  0  0  0  0  0  0  0  0
    2.0734    6.9652    0.8546 H   0  0  0  0  0  0  0  0  0  0  0  0
   -0.0769    6.5902    1.8905 H   0  0  0  0  0  0  0  0  0  0  0  0
   -2.2240    6.2630    2.9469 H   0  0  0  0  0  0  0  0  0  0  0  0
   -4.3888    6.0129    4.0000 H   0  0  0  0  0  0  0  0  0  0  0  0
   -6.4319    4.7091    4.4185 H   0  0  0  0  0  0  0  0  0  0  0  0
   -6.6882    2.4499    3.4243 H   0  0  0  0  0  0  0  0  0  0  0  0
   -4.9169    1.5057    2.0311 H   0  0  0  0  0  0  0  0  0  0  0  0
   -1.7249    0.1636    2.1883 H   0  0  0  0  0  0  0  0  0  0  0  0
   -2.7398   -4.6020    1.4820 H   0  0  0  0  0  0  0  0  0  0  0  0
   -1.5960   -5.9229    3.2292 H   0  0  0  0  0  0  0  0  0  0  0  0
    0.4657   -5.0483    4.3034 H   0  0  0  0  0  0  0  0  0  0  0  0
    1.3757   -2.8468    3.6236 H   0  0  0  0  0  0  0  0  0  0  0  0
    0.2427   -1.5137    1.8809 H   0  0  0  0  0  0  0  0  0  0  0  0
   -1.7972   -4.0007   -2.8778 H   0  0  0  0  0  0  0  0  0  0  0  0
   -2.5856   -5.0566   -4.9653 H   0  0  0  0  0  0  0  0  0  0  0  0
   -4.7423   -4.3596   -5.9790 H   0  0  0  0  0  0  0  0  0  0  0  0
   -6.1137   -2.6067   -4.8815 H   0  0  0  0  0  0  0  0  0  0  0  0
   -5.3456   -1.5546   -2.7913 H   0  0  0  0  0  0  0  0  0  0  0  0
   -3.9180    0.4699   -2.5112 H   0  0  0  0  0  0  0  0  0  0  0  0
   -3.6032    2.4688   -1.0366 H   0  0  0  0  0  0  0  0  0  0  0  0
   -0.2258    2.0195    0.0616 H   0  0  0  0  0  0  0  0  0  0  0  0
    3.3553    1.3509    0.9399 H   0  0  0  0  0  0  0  0  0  0  0  0
    2.8773   -0.1695    2.7266 H   0  0  0  0  0  0  0  0  0  0  0  0
    4.0415   -0.6826    4.8311 H   0  0  0  0  0  0  0  0  0  0  0  0
    5.6614   -2.5586    4.9424 H   0  0  0  0  0  0  0  0  0  0  0  0
    6.1235   -3.9150    2.9144 H   0  0  0  0  0  0  0  0  0  0  0  0
    4.9847   -3.3998    0.7890 H   0  0  0  0  0  0  0  0  0  0  0  0
    1.1066   -4.5248   -0.7090 H   0  0  0  0  0  0  0  0  0  0  0  0
    0.3413   -6.3863   -2.1366 H   0  0  0  0  0  0  0  0  0  0  0  0
    0.4504   -6.1916   -4.6102 H   0  0  0  0  0  0  0  0  0  0  0  0
    1.3226   -4.1129   -5.6483 H   0  0  0  0  0  0  0  0  0  0  0  0
    2.1057   -2.2507   -4.2361 H   0  0  0  0  0  0  0  0  0  0  0  0
  1  2  4  0
  2  3  4  0
  3  4  1  0
  4  5  4  0
  5  6  4  0
  6  7  4  0
  7  8  4  0
  8  9  4  0
  9 10  4  0
 10 11  4  0
 11 12  4  0
 12 13  4  0
 13 14  4  0
 14 15  4  0
 15 16  4  0
 16 17  4  0
 17 18  4  0
 18 19  4  0
 19 20  4  0
 20 21  4  0
 21 22  4  0
 22 23  1  0
 23 24  4  0
 24 25  4  0
 25 26  4  0
 26 27  1  0
 27 28  4  0
 28 29  4  0
 29 30  4  0
 30 31  4  0
 31 32  4  0
 26 33  4  0
 33 34  4  0
 34 35  1  0
 35 36  4  0
 36 37  4  0
 37 38  4  0
 38 39  4  0
 39 40  4  0
 34 41  4  0
 41 42  4  0
 42 43  4  0
 22 44  4  0
 44 45  4  0
 45 46  4  0
  3 47  4  0
 47 48  4  0
 48 49  4  0
 49 50  1  0
 50 51  4  0
 51 52  4  0
 52 53  4  0
 53 54  4  0
 54 55  4  0
 49 56  4  0
 56 57  4  0
 57 58  1  0
 58 59  4  0
 59 60  4  0
 60 61  4  0
 61 62  4  0
 62 63  4  0
 57 64  4  0
 64  1  4  0
 46  4  4  0
 64 48  4  0
 10  5  4  0
 46 12  4  0
 55 50  4  0
 63 58  4  0
 44 14  4  0
 21 16  4  0
 43 23  4  0
 41 25  4  0
 32 27  4  0
 40 35  4  0
  1 65  1  0
  2 66  1  0
  6 67  1  0
  7 68  1  0
  8 69  1  0
  9 70  1  0
 11 71  1  0
 13 72  1  0
 15 73  1  0
 17 74  1  0
 18 75  1  0
 19 76  1  0
 20 77  1  0
 24 78  1  0
 28 79  1  0
 29 80  1  0
 30 81  1  0
 31 82  1  0
 32 83  1  0
 36 84  1  0
 37 85  1  0
 38 86  1  0
 39 87  1  0
 40 88  1  0
 42 89  1  0
 43 90  1  0
 45 91  1  0
 47 92  1  0
 51 93  1  0
 52 94  1  0
 53 95  1  0
 54 96  1  0
 55 97  1  0
 59 98  1  0
 60 99  1  0
 61100  1  0
 62101  1  0
 63102  1  0
M  END
