
     RDKit          3D

102114  0  0  0  0  0  0  0  0999 V2000
    0.5317    3.3891   -2.5926 C   0  0  0  0  0  0  0  0  0  0  0  0
    1.4563    4.1084   -1.8007 C   0  0  0  0  0  0  0  0  0  0  0  0
    1.9837    3.2980   -0.7978 C   0  0  0  0  0  0  0  0  0  0  0  0
    2.8865    3.6442    0.1820 C   0  0  0  0  0  0  0  0  0  0  0  0
    3.6509    4.8312    0.5454 C   0  0  0  0  0  0  0  0  0  0  0  0
    3.8465    5.1642    1.8940 C   0  0  0  0  0  0  0  0  0  0  0  0
    4.5755    6.3009    2.2525 C   0  0  0  0  0  0  0  0  0  0  0  0
    5.1232    7.1169    1.2656 C   0  0  0  0  0  0  0  0  0  0  0  0
    4.9464    6.7945   -0.0781 C   0  0  0  0  0  0  0  0  0  0  0  0
    4.2162    5.6573   -0.4357 C   0  0  0  0  0  0  0  0  0  0  0  0
    3.0875    2.5519    0.9957 O   0  0  0  0  0  0  0  0  0  0  0  0
    2.3438    1.4976    0.5163 C   0  0  0  0  0  0  0  0  0  0  0  0
    2.4865    0.2523    1.2600 C   0  0  0  0  0  0  0  0  0  0  0  0
    2.6081    0.2673    2.6562 C   0  0  0  0  0  0  0  0  0  0  0  0
    2.7232   -0.9228    3.3772 C   0  0  0  0  0  0  0  0  0  0  0  0
    2.7200   -2.1460    2.7082 C   0  0  0  0  0  0  0  0  0  0  0  0
    2.6131   -2.1923    1.3111 C   0  0  0  0  0  0  0  0  0  0  0  0
    2.5860   -3.4877    0.5953 C   0  0  0  0  0  0  0  0  0  0  0  0
    3.8098   -4.1233    0.2161 C   0  0  0  0  0  0  0  0  0  0  0  0
    5.0940   -3.5894    0.4895 C   0  0  0  0  0  0  0  0  0  0  0  0
    6.2654   -4.2437    0.1017 C   0  0  0  0  0  0  0  0  0  0  0  0
    6.1884   -5.4528   -0.5733 C   0  0  0  0  0  0  0  0  0  0  0  0
    4.9410   -6.0031   -0.8608 C   0  0  0  0  0  0  0  0  0  0  0  0
    3.7545   -5.3536   -0.4769 C   0  0  0  0  0  0  0  0  0  0  0  0
    2.5126   -5.9231   -0.7863 C   0  0  0  0  0  0  0  0  0  0  0  0
    1.3058   -5.3084   -0.4275 C   0  0  0  0  0  0  0  0  0  0  0  0
    0.0769   -5.9006   -0.7671 C   0  0  0  0  0  0  0  0  0  0  0  0
   -1.1545   -5.3112   -0.4327 C   0  0  0  0  0  0  0  0  0  0  0  0
   -2.3590   -5.9242   -0.8026 C   0  0  0  0  0  0  0  0  0  0  0  0
   -3.6031   -5.3571   -0.4968 C   0  0  0  0  0  0  0  0  0  0  0  0
   -4.7877   -5.9998   -0.8981 C   0  0  0  0  0  0  0  0  0  0  0  0
   -6.0369   -5.4516   -0.6136 C   0  0  0  0  0  0  0  0  0  0  0  0
   -6.1177   -4.2515    0.0768 C   0  0  0  0  0  0  0  0  0  0  0  0
   -4.9484   -3.6049    0.4832 C   0  0  0  0  0  0  0  0  0  0  0  0
   -3.6627   -4.1365    0.2121 C   0  0  0  0  0  0  0  0  0  0  0  0
   -2.4415   -3.5075    0.6092 C   0  0  0  0  0  0  0  0  0  0  0  0
   -2.4730   -2.2384    1.3689 C   0  0  0  0  0  0  0  0  0  0  0  0
   -2.5232   -2.2455    2.7707 C   0  0  0  0  0  0  0  0  0  0  0  0
   -2.5203   -1.0486    3.4861 C   0  0  0  0  0  0  0  0  0  0  0  0
   -2.4586    0.1702    2.8074 C   0  0  0  0  0  0  0  0  0  0  0  0
   -2.4039    0.2069    1.4087 C   0  0  0  0  0  0  0  0  0  0  0  0
   -2.3407    1.4722    0.6921 C   0  0  0  0  0  0  0  0  0  0  0  0
   -1.6728    2.6665    0.8320 C   0  0  0  0  0  0  0  0  0  0  0  0
   -0.7215    3.0059    1.7910 C   0  0  0  0  0  0  0  0  0  0  0  0
   -0.2453    4.3201    1.5796 C   0  0  0  0  0  0  0  0  0  0  0  0
   -0.6826    5.1769    0.5097 C   0  0  0  0  0  0  0  0  0  0  0  0
   -1.6407    4.8094   -0.4634 C   0  0  0  0  0  0  0  0  0  0  0  0
   -2.1072    3.5169   -0.2338 C   0  0  0  0  0  0  0  0  0  0  0  0
   -3.0172    2.7996   -0.9778 C   0  0  0  0  0  0  0  0  0  0  0  0
   -3.8446    3.0334   -2.1553 C   0  0  0  0  0  0  0  0  0  0  0  0
   -4.4562    4.2746   -2.3778 C   0  0  0  0  0  0  0  0  0  0  0  0
   -5.2451    4.4897   -3.5117 C   0  0  0  0  0  0  0  0  0  0  0  0
   -5.4361    3.4632   -4.4342 C   0  0  0  0  0  0  0  0  0  0  0  0
   -4.8436    2.2207   -4.2224 C   0  0  0  0  0  0  0  0  0  0  0  0
   -4.0553    2.0073   -3.0888 C   0  0  0  0  0  0  0  0  0  0  0  0
   -3.1459    1.5477   -0.4199 O   0  0  0  0  0  0  0  0  0  0  0  0
   -2.4219   -1.0038    0.7008 C   0  0  0  0  0  0  0  0  0  0  0  0
   -1.1797   -4.0980    0.2751 C   0  0  0  0  0  0  0  0  0  0  0  0
    0.0722   -3.5246    0.6139 C   0  0  0  0  0  0  0  0  0  0  0  0
    1.3266   -4.0900    0.2719 C   0  0  0  0  0  0  0  0  0  0  0  0
    2.5053   -0.9839    0.5996 C   0  0  0  0  0  0  0  0  0  0  0  0
    1.6348    1.9271   -0.5827 C   0  0  0  0  0  0  0  0  0  0  0  0
    0.7162    1.2073   -1.3442 C   0  0  0  0  0  0  0  0  0  0  0  0
    0.1802    2.0114   -2.3760 C   0  0  0  0  0  0  0  0  0  0  0  0
    0.0442    3.9123   -3.4164 H   0  0  0  0  0  0  0  0  0  0  0  0
    1.6878    5.1506   -1.9656 H   0  0  0  0  0  0  0  0  0  0  0  0
    3.4257    4.5369    2.6771 H   0  0  0  0  0  0  0  0  0  0  0  0
    4.7160    6.5454    3.3021 H   0  0  0  0  0  0  0  0  0  0  0  0
    5.6930    7.9997    1.5436 H   0  0  0  0  0  0  0  0  0  0  0  0
    5.3825    7.4237   -0.8498 H   0  0  0  0  0  0  0  0  0  0  0  0
    4.1127    5.4136   -1.4900 H   0  0  0  0  0  0  0  0  0  0  0  0
    2.6068    1.2139    3.1928 H   0  0  0  0  0  0  0  0  0  0  0  0
    2.8089   -0.8955    4.4600 H   0  0  0  0  0  0  0  0  0  0  0  0
    2.7996   -3.0691    3.2790 H   0  0  0  0  0  0  0  0  0  0  0  0
    5.1977   -2.6412    1.0142 H   0  0  0  0  0  0  0  0  0  0  0  0
    7.2326   -3.8032    0.3286 H   0  0  0  0  0  0  0  0  0  0  0  0
    7.0955   -5.9668   -0.8787 H   0  0  0  0  0  0  0  0  0  0  0  0
    4.9015   -6.9508   -1.3940 H   0  0  0  0  0  0  0  0  0  0  0  0
    2.4849   -6.8692   -1.3255 H   0  0  0  0  0  0  0  0  0  0  0  0
    0.0787   -6.8431   -1.3136 H   0  0  0  0  0  0  0  0  0  0  0  0
   -2.3277   -6.8663   -1.3490 H   0  0  0  0  0  0  0  0  0  0  0  0
   -4.7451   -6.9401   -1.4440 H   0  0  0  0  0  0  0  0  0  0  0  0
   -6.9419   -5.9599   -0.9344 H   0  0  0  0  0  0  0  0  0  0  0  0
   -7.0855   -3.8104    0.2995 H   0  0  0  0  0  0  0  0  0  0  0  0
   -5.0537   -2.6614    1.0162 H   0  0  0  0  0  0  0  0  0  0  0  0
   -2.5616   -3.1907    3.3087 H   0  0  0  0  0  0  0  0  0  0  0  0
   -2.5682   -1.0657    4.5721 H   0  0  0  0  0  0  0  0  0  0  0  0
   -2.4745    1.0931    3.3825 H   0  0  0  0  0  0  0  0  0  0  0  0
   -0.3612    2.3658    2.5832 H   0  0  0  0  0  0  0  0  0  0  0  0
    0.5098    4.7102    2.2636 H   0  0  0  0  0  0  0  0  0  0  0  0
   -0.2355    6.1699    0.4408 H   0  0  0  0  0  0  0  0  0  0  0  0
   -1.9354    5.4594   -1.2744 H   0  0  0  0  0  0  0  0  0  0  0  0
   -4.3432    5.0825   -1.6595 H   0  0  0  0  0  0  0  0  0  0  0  0
   -5.7160    5.4567   -3.6697 H   0  0  0  0  0  0  0  0  0  0  0  0
   -6.0516    3.6295   -5.3144 H   0  0  0  0  0  0  0  0  0  0  0  0
   -4.9952    1.4154   -4.9364 H   0  0  0  0  0  0  0  0  0  0  0  0
   -3.6011    1.0297   -2.9366 H   0  0  0  0  0  0  0  0  0  0  0  0
   -2.3811   -0.9892   -0.3875 H   0  0  0  0  0  0  0  0  0  0  0  0
    0.0695   -2.5867    1.1674 H   0  0  0  0  0  0  0  0  0  0  0  0
    2.4417   -1.0213   -0.4863 H   0  0  0  0  0  0  0  0  0  0  0  0
    0.4205    0.1806   -1.1830 H   0  0  0  0  0  0  0  0  0  0  0  0
   -0.5527    1.5650   -3.0496 H   0  0  0  0  0  0  0  0  0  0  0  0
  1  2  4  0
  2  3  4  0
  3  4  4  0
  4  5  1  0
  5  6  4  0
  6  7  4  0
  7  8  4  0
  8  9  4  0
  9 10  4  0
  4 11  4  0
 11 12  4  0
 12 13  1  0
 13 14  4  0
 14 15  4  0
 15 16  4  0
 16 17  4  0
 17 18  1  0
 18 19  4  0
 19 20  4  0
 20 21  4  0
 21 22  4  0
 22 23  4  0
 23 24  4  0
 24 25  4  0
 25 26  4  0
 26 27  4  0
 27 28  4  0
 28 29  4  0
 29 30  4  0
 30 31  4  0
 31 32  4  0
 32 33  4  0
 33 34  4  0
 34 35  4  0
 35 36  4  0
 36 37  1  0
 37 38  4  0
 38 39  4  0
 39 40  4  0
 40 41  4  0
 41 42  1  0
 42 43  4  0
 43 44  4  0
 44 45  4  0
 45 46  4  0
 46 47  4  0
 47 48  4  0
 48 49  4  0
 49 50  1  0
 50 51  4  0
 51 52  4  0
 52 53  4  0
 53 54  4  0
 54 55  4  0
 49 56  4  0
 41 57  4  0
 36 58  4  0
 58 59  4  0
 59 60  4  0
 17 61  4  0
 12 62  4  0
 62 63  4  0
 63 64  4  0
 64  1  4  0
 62  3  4  0
 10  5  4  0
 61 13  4  0
 60 18  4  0
 24 19  4  0
 60 26  4  0
 58 28  4  0
 35 30  4  0
 57 37  4  0
 56 42  4  0
 48 43  4  0
 55 50  4  0
  1 65  1  0
  2 66  1  0
  6 67  1  0
  7 68  1  0
  8 69  1  0
  9 70  1  0
 10 71  1  0
 14 72  1  0
 15 73  1  0
 16 74  1  0
 20 75  1  0
 21 76  1  0
 22 77  1  0
 23 78  1  0
 25 79  1  0
 27 80  1  0
 29 81  1  0
 31 82  1  0
 32 83  1  0
 33 84  1  0
 34 85  1  0
 38 86  1  0
 39 87  1  0
 40 88  1  0
 44 89  1  0
 45 90  1  0
 46 91  1  0
 47 92  1  0
 51 93  1  0
 52 94  1  0
 53 95  1  0
 54 96  1  0
 55 97  1  0
 57 98  1  0
 59 99  1  0
 61100  1  0
 63101  1  0
 64102  1  0
M  END
