
     RDKit          3D

 96110  0  0  0  0  0  0  0  0999 V2000
   -3.5794    5.6336    4.9796 C   0  0  0  0  0  0  0  0  0  0  0  0
   -3.6066    4.4027    5.6216 C   0  0  0  0  0  0  0  0  0  0  0  0
   -3.3745    3.2397    4.8864 C   0  0  0  0  0  0  0  0  0  0  0  0
   -3.1147    3.2879    3.5221 C   0  0  0  0  0  0  0  0  0  0  0  0
   -2.8963    2.1510    2.8426 N   0  0  0  0  0  0  0  0  0  0  0  0
   -2.6524    2.2080    1.5122 C   0  0  0  0  0  0  0  0  0  0  0  0
   -2.6132    3.4669    0.8848 C   0  0  0  0  0  0  0  0  0  0  0  0
   -2.8390    4.6147    1.5528 N   0  0  0  0  0  0  0  0  0  0  0  0
   -3.0884    4.5328    2.8706 C   0  0  0  0  0  0  0  0  0  0  0  0
   -3.3211    5.6878    3.6090 C   0  0  0  0  0  0  0  0  0  0  0  0
   -2.3171    3.5392   -0.4587 C   0  0  0  0  0  0  0  0  0  0  0  0
   -2.0797    2.4134   -1.2189 C   0  0  0  0  0  0  0  0  0  0  0  0
   -1.7109    2.5892   -2.4969 N   0  0  0  0  0  0  0  0  0  0  0  0
   -1.4282    1.4907   -3.2189 C   0  0  0  0  0  0  0  0  0  0  0  0
   -0.9624    1.6108   -4.5228 C   0  0  0  0  0  0  0  0  0  0  0  0
   -0.6563    0.4864   -5.2921 C   0  0  0  0  0  0  0  0  0  0  0  0
   -0.8250   -0.7818   -4.7505 C   0  0  0  0  0  0  0  0  0  0  0  0
   -1.3012   -0.9133   -3.4469 C   0  0  0  0  0  0  0  0  0  0  0  0
   -1.5925    0.2025   -2.6729 C   0  0  0  0  0  0  0  0  0  0  0  0
   -1.9957    0.0369   -1.4035 N   0  0  0  0  0  0  0  0  0  0  0  0
   -2.1904    1.1344   -0.6378 C   0  0  0  0  0  0  0  0  0  0  0  0
   -2.4437    1.0366    0.7410 C   0  0  0  0  0  0  0  0  0  0  0  0
   -2.4324   -0.2882    1.4554 C   0  0  0  0  0  0  0  0  0  0  0  0
   -3.6344   -0.7747    2.0678 C   0  0  0  0  0  0  0  0  0  0  0  0
   -4.9292   -0.2684    1.7863 C   0  0  0  0  0  0  0  0  0  0  0  0
   -6.0722   -0.7585    2.4216 C   0  0  0  0  0  0  0  0  0  0  0  0
   -5.9566   -1.7709    3.3618 C   0  0  0  0  0  0  0  0  0  0  0  0
   -4.7003   -2.2923    3.6612 C   0  0  0  0  0  0  0  0  0  0  0  0
   -3.5432   -1.8114    3.0231 C   0  0  0  0  0  0  0  0  0  0  0  0
   -2.2909   -2.3411    3.3558 C   0  0  0  0  0  0  0  0  0  0  0  0
   -1.1198   -1.9375    2.7019 C   0  0  0  0  0  0  0  0  0  0  0  0
    0.1244   -2.4778    3.0738 C   0  0  0  0  0  0  0  0  0  0  0  0
    1.3127   -2.1632    2.3913 C   0  0  0  0  0  0  0  0  0  0  0  0
    2.5423   -2.6675    2.8346 C   0  0  0  0  0  0  0  0  0  0  0  0
    3.7373   -2.4001    2.1565 C   0  0  0  0  0  0  0  0  0  0  0  0
    4.9573   -2.8790    2.6680 C   0  0  0  0  0  0  0  0  0  0  0  0
    6.1585   -2.6514    2.0003 C   0  0  0  0  0  0  0  0  0  0  0  0
    6.1539   -1.9436    0.8082 C   0  0  0  0  0  0  0  0  0  0  0  0
    4.9473   -1.4674    0.2878 C   0  0  0  0  0  0  0  0  0  0  0  0
    3.7060   -1.6792    0.9417 C   0  0  0  0  0  0  0  0  0  0  0  0
    2.4413   -1.2249    0.4341 C   0  0  0  0  0  0  0  0  0  0  0  0
    2.3369   -0.8255   -1.0144 C   0  0  0  0  0  0  0  0  0  0  0  0
    2.1256    0.5058   -1.4164 C   0  0  0  0  0  0  0  0  0  0  0  0
    1.9201    1.5033   -0.5260 N   0  0  0  0  0  0  0  0  0  0  0  0
    1.6578    2.7391   -0.9898 C   0  0  0  0  0  0  0  0  0  0  0  0
    1.4092    3.7727   -0.0955 C   0  0  0  0  0  0  0  0  0  0  0  0
    1.1480    5.0685   -0.5416 C   0  0  0  0  0  0  0  0  0  0  0  0
    1.1310    5.3350   -1.9042 C   0  0  0  0  0  0  0  0  0  0  0  0
    1.3758    4.3021   -2.8085 C   0  0  0  0  0  0  0  0  0  0  0  0
    1.6349    3.0078   -2.3717 C   0  0  0  0  0  0  0  0  0  0  0  0
    1.8729    2.0348   -3.2660 N   0  0  0  0  0  0  0  0  0  0  0  0
    2.1015    0.7997   -2.7961 C   0  0  0  0  0  0  0  0  0  0  0  0
    2.2937   -0.2026   -3.7231 C   0  0  0  0  0  0  0  0  0  0  0  0
    2.4640   -1.5177   -3.3530 C   0  0  0  0  0  0  0  0  0  0  0  0
    2.6157   -2.4391   -4.3233 N   0  0  0  0  0  0  0  0  0  0  0  0
    2.7530   -3.7220   -3.9489 C   0  0  0  0  0  0  0  0  0  0  0  0
    2.9040   -4.7156   -4.9097 C   0  0  0  0  0  0  0  0  0  0  0  0
    3.0517   -6.0562   -4.5506 C   0  0  0  0  0  0  0  0  0  0  0  0
    3.0498   -6.4085   -3.2074 C   0  0  0  0  0  0  0  0  0  0  0  0
    2.8987   -5.4164   -2.2380 C   0  0  0  0  0  0  0  0  0  0  0  0
    2.7485   -4.0800   -2.5896 C   0  0  0  0  0  0  0  0  0  0  0  0
    2.6067   -3.1487   -1.6326 N   0  0  0  0  0  0  0  0  0  0  0  0
    2.4659   -1.8503   -1.9864 C   0  0  0  0  0  0  0  0  0  0  0  0
    1.2618   -1.3620    1.2409 C   0  0  0  0  0  0  0  0  0  0  0  0
    0.0167   -0.7447    0.9629 C   0  0  0  0  0  0  0  0  0  0  0  0
   -1.1850   -0.9699    1.6875 C   0  0  0  0  0  0  0  0  0  0  0  0
   -3.7554    6.5493    5.5376 H   0  0  0  0  0  0  0  0  0  0  0  0
   -3.8054    4.3413    6.6883 H   0  0  0  0  0  0  0  0  0  0  0  0
   -3.3969    2.2726    5.3839 H   0  0  0  0  0  0  0  0  0  0  0  0
   -3.2962    6.6491    3.1021 H   0  0  0  0  0  0  0  0  0  0  0  0
   -2.2429    4.5167   -0.9291 H   0  0  0  0  0  0  0  0  0  0  0  0
   -0.8331    2.6039   -4.9467 H   0  0  0  0  0  0  0  0  0  0  0  0
   -0.2903    0.6051   -6.3090 H   0  0  0  0  0  0  0  0  0  0  0  0
   -0.5943   -1.6665   -5.3386 H   0  0  0  0  0  0  0  0  0  0  0  0
   -1.4432   -1.9023   -3.0158 H   0  0  0  0  0  0  0  0  0  0  0  0
   -5.0640    0.5198    1.0498 H   0  0  0  0  0  0  0  0  0  0  0  0
   -7.0476   -0.3453    2.1796 H   0  0  0  0  0  0  0  0  0  0  0  0
   -6.8403   -2.1554    3.8628 H   0  0  0  0  0  0  0  0  0  0  0  0
   -4.6301   -3.0847    4.4036 H   0  0  0  0  0  0  0  0  0  0  0  0
   -2.2287   -3.1052    4.1293 H   0  0  0  0  0  0  0  0  0  0  0  0
    0.1685   -3.1668    3.9161 H   0  0  0  0  0  0  0  0  0  0  0  0
    2.5716   -3.2695    3.7415 H   0  0  0  0  0  0  0  0  0  0  0  0
    4.9795   -3.4403    3.5998 H   0  0  0  0  0  0  0  0  0  0  0  0
    7.0914   -3.0272    2.4107 H   0  0  0  0  0  0  0  0  0  0  0  0
    7.0842   -1.7583    0.2781 H   0  0  0  0  0  0  0  0  0  0  0  0
    4.9927   -0.9089   -0.6438 H   0  0  0  0  0  0  0  0  0  0  0  0
    1.4229    3.5633    0.9722 H   0  0  0  0  0  0  0  0  0  0  0  0
    0.9666    5.8655    0.1750 H   0  0  0  0  0  0  0  0  0  0  0  0
    0.9312    6.3413   -2.2632 H   0  0  0  0  0  0  0  0  0  0  0  0
    1.3773    4.5102   -3.8764 H   0  0  0  0  0  0  0  0  0  0  0  0
    2.2838    0.0481   -4.7817 H   0  0  0  0  0  0  0  0  0  0  0  0
    2.9062   -4.4362   -5.9604 H   0  0  0  0  0  0  0  0  0  0  0  0
    3.1680   -6.8170   -5.3183 H   0  0  0  0  0  0  0  0  0  0  0  0
    3.1654   -7.4477   -2.9103 H   0  0  0  0  0  0  0  0  0  0  0  0
    2.8998   -5.6861   -1.1842 H   0  0  0  0  0  0  0  0  0  0  0  0
   -0.0130   -0.0514    0.1334 H   0  0  0  0  0  0  0  0  0  0  0  0
  1  2  4  0
  2  3  4  0
  3  4  4  0
  4  5  4  0
  5  6  4  0
  6  7  4  0
  7  8  4  0
  8  9  4  0
  9 10  4  0
  7 11  4  0
 11 12  4  0
 12 13  4  0
 13 14  4  0
 14 15  4  0
 15 16  4  0
 16 17  4  0
 17 18  4  0
 18 19  4  0
 19 20  4  0
 20 21  4  0
 21 22  4  0
 22 23  1  0
 23 24  4  0
 24 25  4  0
 25 26  4  0
 26 27  4  0
 27 28  4  0
 28 29  4  0
 29 30  4  0
 30 31  4  0
 31 32  4  0
 32 33  4  0
 33 34  4  0
 34 35  4  0
 35 36  4  0
 36 37  4  0
 37 38  4  0
 38 39  4  0
 39 40  4  0
 40 41  4  0
 41 42  1  0
 42 43  4  0
 43 44  4  0
 44 45  4  0
 45 46  4  0
 46 47  4  0
 47 48  4  0
 48 49  4  0
 49 50  4  0
 50 51  4  0
 51 52  4  0
 52 53  4  0
 53 54  4  0
 54 55  4  0
 55 56  4  0
 56 57  4  0
 57 58  4  0
 58 59  4  0
 59 60  4  0
 60 61  4  0
 61 62  4  0
 62 63  4  0
 41 64  4  0
 64 65  4  0
 65 66  4  0
 10  1  4  0
 21 12  4  0
 66 23  4  0
  9  4  4  0
 19 14  4  0
 29 24  4  0
 66 31  4  0
 22  6  4  0
 64 33  4  0
 40 35  4  0
 63 42  4  0
 52 43  4  0
 63 54  4  0
 50 45  4  0
 61 56  4  0
  1 67  1  0
  2 68  1  0
  3 69  1  0
 10 70  1  0
 11 71  1  0
 15 72  1  0
 16 73  1  0
 17 74  1  0
 18 75  1  0
 25 76  1  0
 26 77  1  0
 27 78  1  0
 28 79  1  0
 30 80  1  0
 32 81  1  0
 34 82  1  0
 36 83  1  0
 37 84  1  0
 38 85  1  0
 39 86  1  0
 46 87  1  0
 47 88  1  0
 48 89  1  0
 49 90  1  0
 53 91  1  0
 57 92  1  0
 58 93  1  0
 59 94  1  0
 60 95  1  0
 65 96  1  0
M  END
