
     RDKit          3D

100114  0  0  0  0  0  0  0  0999 V2000
    3.7386    4.6593    5.1097 C   0  0  0  0  0  0  0  0  0  0  0  0
    4.2490    3.3953    5.3816 C   0  0  0  0  0  0  0  0  0  0  0  0
    4.0998    2.3680    4.4445 C   0  0  0  0  0  0  0  0  0  0  0  0
    3.4496    2.5696    3.2339 C   0  0  0  0  0  0  0  0  0  0  0  0
    3.3403    1.5503    2.3636 N   0  0  0  0  0  0  0  0  0  0  0  0
    2.7128    1.7544    1.1913 C   0  0  0  0  0  0  0  0  0  0  0  0
    2.6020    0.7131    0.2832 C   0  0  0  0  0  0  0  0  0  0  0  0
    2.0021    0.8603   -0.9968 C   0  0  0  0  0  0  0  0  0  0  0  0
    1.4836    2.1149   -1.3472 C   0  0  0  0  0  0  0  0  0  0  0  0
    1.5592    3.1507   -0.4285 C   0  0  0  0  0  0  0  0  0  0  0  0
    2.1702    2.9924    0.8282 C   0  0  0  0  0  0  0  0  0  0  0  0
    2.2757    4.0452    1.7448 C   0  0  0  0  0  0  0  0  0  0  0  0
    2.9296    3.8502    2.9663 C   0  0  0  0  0  0  0  0  0  0  0  0
    3.0784    4.8886    3.9041 C   0  0  0  0  0  0  0  0  0  0  0  0
    0.9164    2.3643   -2.5343 N   0  0  0  0  0  0  0  0  0  0  0  0
    0.8274    1.3861   -3.4491 C   0  0  0  0  0  0  0  0  0  0  0  0
    0.2261    1.6816   -4.6655 C   0  0  0  0  0  0  0  0  0  0  0  0
    0.0936    0.7296   -5.6783 C   0  0  0  0  0  0  0  0  0  0  0  0
    0.5698   -0.5561   -5.4761 C   0  0  0  0  0  0  0  0  0  0  0  0
    1.1679   -0.8797   -4.2602 C   0  0  0  0  0  0  0  0  0  0  0  0
    1.3063    0.0819   -3.2266 C   0  0  0  0  0  0  0  0  0  0  0  0
    1.8874   -0.1881   -1.9573 C   0  0  0  0  0  0  0  0  0  0  0  0
    2.2940   -1.5764   -1.5846 C   0  0  0  0  0  0  0  0  0  0  0  0
    3.6401   -2.0161   -1.7630 C   0  0  0  0  0  0  0  0  0  0  0  0
    4.6473   -1.2312   -2.3749 C   0  0  0  0  0  0  0  0  0  0  0  0
    5.9543   -1.6979   -2.5244 C   0  0  0  0  0  0  0  0  0  0  0  0
    6.2917   -2.9637   -2.0674 C   0  0  0  0  0  0  0  0  0  0  0  0
    5.3231   -3.7585   -1.4574 C   0  0  0  0  0  0  0  0  0  0  0  0
    4.0043   -3.2999   -1.2967 C   0  0  0  0  0  0  0  0  0  0  0  0
    3.0521   -4.1065   -0.6562 C   0  0  0  0  0  0  0  0  0  0  0  0
    1.7255   -3.6884   -0.4791 C   0  0  0  0  0  0  0  0  0  0  0  0
    0.7957   -4.4953    0.2024 C   0  0  0  0  0  0  0  0  0  0  0  0
   -0.5427   -4.1012    0.3889 C   0  0  0  0  0  0  0  0  0  0  0  0
   -1.4343   -4.9061    1.1109 C   0  0  0  0  0  0  0  0  0  0  0  0
   -2.7725   -4.5375    1.3075 C   0  0  0  0  0  0  0  0  0  0  0  0
   -3.6259   -5.3647    2.0580 C   0  0  0  0  0  0  0  0  0  0  0  0
   -4.9619   -5.0251    2.2606 C   0  0  0  0  0  0  0  0  0  0  0  0
   -5.4635   -3.8537    1.7129 C   0  0  0  0  0  0  0  0  0  0  0  0
   -4.6267   -3.0235    0.9639 C   0  0  0  0  0  0  0  0  0  0  0  0
   -3.2633   -3.3383    0.7418 C   0  0  0  0  0  0  0  0  0  0  0  0
   -2.3724   -2.5199   -0.0199 C   0  0  0  0  0  0  0  0  0  0  0  0
   -2.8831   -1.3114   -0.7386 C   0  0  0  0  0  0  0  0  0  0  0  0
   -3.4647   -1.4572   -2.0342 C   0  0  0  0  0  0  0  0  0  0  0  0
   -3.6356   -2.6974   -2.7050 C   0  0  0  0  0  0  0  0  0  0  0  0
   -4.2157   -2.7701   -3.9707 C   0  0  0  0  0  0  0  0  0  0  0  0
   -4.6291   -1.6051   -4.5961 C   0  0  0  0  0  0  0  0  0  0  0  0
   -4.4595   -0.3802   -3.9492 C   0  0  0  0  0  0  0  0  0  0  0  0
   -3.8888   -0.2860   -2.6869 C   0  0  0  0  0  0  0  0  0  0  0  0
   -3.7687    0.9327   -2.1492 N   0  0  0  0  0  0  0  0  0  0  0  0
   -3.1963    1.0717   -0.9494 C   0  0  0  0  0  0  0  0  0  0  0  0
   -3.0423    2.3581   -0.4641 C   0  0  0  0  0  0  0  0  0  0  0  0
   -2.4511    2.6156    0.7817 C   0  0  0  0  0  0  0  0  0  0  0  0
   -2.2848    3.9186    1.2620 C   0  0  0  0  0  0  0  0  0  0  0  0
   -1.6992    4.1327    2.5127 C   0  0  0  0  0  0  0  0  0  0  0  0
   -1.5153    5.4266    3.0304 C   0  0  0  0  0  0  0  0  0  0  0  0
   -0.9521    5.6058    4.2916 C   0  0  0  0  0  0  0  0  0  0  0  0
   -0.5667    4.4961    5.0342 C   0  0  0  0  0  0  0  0  0  0  0  0
   -0.7347    3.2122    4.5050 C   0  0  0  0  0  0  0  0  0  0  0  0
   -1.3002    3.0040    3.2530 C   0  0  0  0  0  0  0  0  0  0  0  0
   -1.4555    1.7497    2.7916 N   0  0  0  0  0  0  0  0  0  0  0  0
   -2.0106    1.5552    1.5829 C   0  0  0  0  0  0  0  0  0  0  0  0
   -2.1644    0.2664    1.0908 C   0  0  0  0  0  0  0  0  0  0  0  0
   -2.7437   -0.0097   -0.1766 C   0  0  0  0  0  0  0  0  0  0  0  0
   -0.9951   -2.8899   -0.1580 C   0  0  0  0  0  0  0  0  0  0  0  0
   -0.0378   -2.0899   -0.8232 C   0  0  0  0  0  0  0  0  0  0  0  0
    1.3259   -2.4378   -0.9737 C   0  0  0  0  0  0  0  0  0  0  0  0
    3.8537    5.4632    5.8322 H   0  0  0  0  0  0  0  0  0  0  0  0
    4.7650    3.2021    6.3185 H   0  0  0  0  0  0  0  0  0  0  0  0
    4.5026    1.3818    4.6626 H   0  0  0  0  0  0  0  0  0  0  0  0
    3.0189   -0.2457    0.5863 H   0  0  0  0  0  0  0  0  0  0  0  0
    1.1392    4.1144   -0.7082 H   0  0  0  0  0  0  0  0  0  0  0  0
    1.8487    5.0169    1.5074 H   0  0  0  0  0  0  0  0  0  0  0  0
    2.6865    5.8814    3.6949 H   0  0  0  0  0  0  0  0  0  0  0  0
   -0.1581    2.6862   -4.8275 H   0  0  0  0  0  0  0  0  0  0  0  0
   -0.3823    0.9980   -6.6176 H   0  0  0  0  0  0  0  0  0  0  0  0
    0.4732   -1.3078   -6.2552 H   0  0  0  0  0  0  0  0  0  0  0  0
    1.5277   -1.8977   -4.1233 H   0  0  0  0  0  0  0  0  0  0  0  0
    4.4220   -0.2327   -2.7451 H   0  0  0  0  0  0  0  0  0  0  0  0
    6.7046   -1.0676   -2.9948 H   0  0  0  0  0  0  0  0  0  0  0  0
    7.3084   -3.3307   -2.1778 H   0  0  0  0  0  0  0  0  0  0  0  0
    5.6106   -4.7453   -1.0998 H   0  0  0  0  0  0  0  0  0  0  0  0
    3.3536   -5.0836   -0.2804 H   0  0  0  0  0  0  0  0  0  0  0  0
    1.1260   -5.4494    0.6104 H   0  0  0  0  0  0  0  0  0  0  0  0
   -1.0740   -5.8397    1.5412 H   0  0  0  0  0  0  0  0  0  0  0  0
   -3.2523   -6.2877    2.4971 H   0  0  0  0  0  0  0  0  0  0  0  0
   -5.6067   -5.6743    2.8467 H   0  0  0  0  0  0  0  0  0  0  0  0
   -6.5036   -3.5787    1.8673 H   0  0  0  0  0  0  0  0  0  0  0  0
   -5.0577   -2.1112    0.5556 H   0  0  0  0  0  0  0  0  0  0  0  0
   -3.3111   -3.6267   -2.2416 H   0  0  0  0  0  0  0  0  0  0  0  0
   -4.3413   -3.7324   -4.4611 H   0  0  0  0  0  0  0  0  0  0  0  0
   -5.0802   -1.6410   -5.5840 H   0  0  0  0  0  0  0  0  0  0  0  0
   -4.7787    0.5328   -4.4473 H   0  0  0  0  0  0  0  0  0  0  0  0
   -3.3885    3.1831   -1.0838 H   0  0  0  0  0  0  0  0  0  0  0  0
   -2.6160    4.7644    0.6637 H   0  0  0  0  0  0  0  0  0  0  0  0
   -1.8209    6.2997    2.4584 H   0  0  0  0  0  0  0  0  0  0  0  0
   -0.8201    6.6065    4.6944 H   0  0  0  0  0  0  0  0  0  0  0  0
   -0.1369    4.6210    6.0253 H   0  0  0  0  0  0  0  0  0  0  0  0
   -0.4188    2.3492    5.0867 H   0  0  0  0  0  0  0  0  0  0  0  0
   -1.8066   -0.5484    1.7181 H   0  0  0  0  0  0  0  0  0  0  0  0
   -0.3684   -1.1389   -1.2349 H   0  0  0  0  0  0  0  0  0  0  0  0
  1  2  4  0
  2  3  4  0
  3  4  4  0
  4  5  4  0
  5  6  4  0
  6  7  4  0
  7  8  4  0
  8  9  4  0
  9 10  4  0
 10 11  4  0
 11 12  4  0
 12 13  4  0
 13 14  4  0
  9 15  4  0
 15 16  4  0
 16 17  4  0
 17 18  4  0
 18 19  4  0
 19 20  4  0
 20 21  4  0
 21 22  4  0
 22 23  1  0
 23 24  4  0
 24 25  4  0
 25 26  4  0
 26 27  4  0
 27 28  4  0
 28 29  4  0
 29 30  4  0
 30 31  4  0
 31 32  4  0
 32 33  4  0
 33 34  4  0
 34 35  4  0
 35 36  4  0
 36 37  4  0
 37 38  4  0
 38 39  4  0
 39 40  4  0
 40 41  4  0
 41 42  1  0
 42 43  4  0
 43 44  4  0
 44 45  4  0
 45 46  4  0
 46 47  4  0
 47 48  4  0
 48 49  4  0
 49 50  4  0
 50 51  4  0
 51 52  4  0
 52 53  4  0
 53 54  4  0
 54 55  4  0
 55 56  4  0
 56 57  4  0
 57 58  4  0
 58 59  4  0
 59 60  4  0
 60 61  4  0
 61 62  4  0
 62 63  4  0
 41 64  4  0
 64 65  4  0
 65 66  4  0
 14  1  4  0
 21 16  4  0
 66 23  4  0
 13  4  4  0
 29 24  4  0
 66 31  4  0
 11  6  4  0
 64 33  4  0
 22  8  4  0
 40 35  4  0
 63 42  4  0
 48 43  4  0
 63 50  4  0
 61 52  4  0
 59 54  4  0
  1 67  1  0
  2 68  1  0
  3 69  1  0
  7 70  1  0
 10 71  1  0
 12 72  1  0
 14 73  1  0
 17 74  1  0
 18 75  1  0
 19 76  1  0
 20 77  1  0
 25 78  1  0
 26 79  1  0
 27 80  1  0
 28 81  1  0
 30 82  1  0
 32 83  1  0
 34 84  1  0
 36 85  1  0
 37 86  1  0
 38 87  1  0
 39 88  1  0
 44 89  1  0
 45 90  1  0
 46 91  1  0
 47 92  1  0
 51 93  1  0
 53 94  1  0
 55 95  1  0
 56 96  1  0
 57 97  1  0
 58 98  1  0
 62 99  1  0
 65100  1  0
M  END
