
     RDKit          3D

100114  0  0  0  0  0  0  0  0999 V2000
   -4.6230    8.5875   -2.5904 C   0  0  0  0  0  0  0  0  0  0  0  0
   -4.8481    8.8007   -1.2355 C   0  0  0  0  0  0  0  0  0  0  0  0
   -4.7520    7.7334   -0.3374 C   0  0  0  0  0  0  0  0  0  0  0  0
   -4.4346    6.4493   -0.7592 C   0  0  0  0  0  0  0  0  0  0  0  0
   -4.3549    5.4580    0.1460 N   0  0  0  0  0  0  0  0  0  0  0  0
   -4.0480    4.2171   -0.2670 C   0  0  0  0  0  0  0  0  0  0  0  0
   -3.9647    3.1926    0.6623 C   0  0  0  0  0  0  0  0  0  0  0  0
   -3.6477    1.8739    0.2861 C   0  0  0  0  0  0  0  0  0  0  0  0
   -3.5658    0.8349    1.2202 C   0  0  0  0  0  0  0  0  0  0  0  0
   -3.2547   -0.4633    0.8014 C   0  0  0  0  0  0  0  0  0  0  0  0
   -3.1902   -1.5372    1.7042 C   0  0  0  0  0  0  0  0  0  0  0  0
   -2.9087   -2.8229    1.2452 C   0  0  0  0  0  0  0  0  0  0  0  0
   -2.6743   -3.0516   -0.1159 C   0  0  0  0  0  0  0  0  0  0  0  0
   -2.4435   -4.4237   -0.6228 C   0  0  0  0  0  0  0  0  0  0  0  0
   -3.5308   -5.1382   -1.2315 C   0  0  0  0  0  0  0  0  0  0  0  0
   -4.8399   -4.6138   -1.3906 C   0  0  0  0  0  0  0  0  0  0  0  0
   -5.8667   -5.3440   -1.9946 C   0  0  0  0  0  0  0  0  0  0  0  0
   -5.6197   -6.6270   -2.4571 C   0  0  0  0  0  0  0  0  0  0  0  0
   -4.3489   -7.1769   -2.3096 C   0  0  0  0  0  0  0  0  0  0  0  0
   -3.3088   -6.4506   -1.7021 C   0  0  0  0  0  0  0  0  0  0  0  0
   -2.0470   -7.0340   -1.5554 C   0  0  0  0  0  0  0  0  0  0  0  0
   -0.9821   -6.3542   -0.9518 C   0  0  0  0  0  0  0  0  0  0  0  0
    0.2572   -6.9946   -0.8100 C   0  0  0  0  0  0  0  0  0  0  0  0
    1.3553   -6.3696   -0.2021 C   0  0  0  0  0  0  0  0  0  0  0  0
    2.5618   -7.0679   -0.0689 C   0  0  0  0  0  0  0  0  0  0  0  0
    3.6819   -6.4968    0.5422 C   0  0  0  0  0  0  0  0  0  0  0  0
    4.8681   -7.2420    0.6631 C   0  0  0  0  0  0  0  0  0  0  0  0
    5.9969   -6.7048    1.2768 C   0  0  0  0  0  0  0  0  0  0  0  0
    5.9516   -5.4143    1.7805 C   0  0  0  0  0  0  0  0  0  0  0  0
    4.7783   -4.6650    1.6643 C   0  0  0  0  0  0  0  0  0  0  0  0
    3.6121   -5.1769    1.0379 C   0  0  0  0  0  0  0  0  0  0  0  0
    2.3870   -4.4423    0.8910 C   0  0  0  0  0  0  0  0  0  0  0  0
    2.3136   -3.0499    1.3902 C   0  0  0  0  0  0  0  0  0  0  0  0
    2.9171   -2.0004    0.6726 C   0  0  0  0  0  0  0  0  0  0  0  0
    2.9303   -0.6922    1.1381 C   0  0  0  0  0  0  0  0  0  0  0  0
    3.5652    0.2565    0.4258 N   0  0  0  0  0  0  0  0  0  0  0  0
    3.5714    1.5222    0.8767 C   0  0  0  0  0  0  0  0  0  0  0  0
    4.2185    2.5032    0.1424 C   0  0  0  0  0  0  0  0  0  0  0  0
    4.2571    3.8446    0.5679 C   0  0  0  0  0  0  0  0  0  0  0  0
    4.9105    4.8378   -0.1704 C   0  0  0  0  0  0  0  0  0  0  0  0
    4.9252    6.1593    0.2885 C   0  0  0  0  0  0  0  0  0  0  0  0
    5.5709    7.1855   -0.4245 C   0  0  0  0  0  0  0  0  0  0  0  0
    5.5657    8.4909    0.0618 C   0  0  0  0  0  0  0  0  0  0  0  0
    4.9173    8.7740    1.2582 C   0  0  0  0  0  0  0  0  0  0  0  0
    4.2771    7.7497    1.9625 C   0  0  0  0  0  0  0  0  0  0  0  0
    4.2669    6.4398    1.5009 C   0  0  0  0  0  0  0  0  0  0  0  0
    3.6370    5.4905    2.2164 N   0  0  0  0  0  0  0  0  0  0  0  0
    3.6300    4.2249    1.7649 C   0  0  0  0  0  0  0  0  0  0  0  0
    2.9824    3.2438    2.4989 C   0  0  0  0  0  0  0  0  0  0  0  0
    2.9443    1.9022    2.0736 C   0  0  0  0  0  0  0  0  0  0  0  0
    2.2947    0.9075    2.8135 C   0  0  0  0  0  0  0  0  0  0  0  0
    2.2823   -0.4144    2.3554 C   0  0  0  0  0  0  0  0  0  0  0  0
    1.6566   -1.4436    3.0793 C   0  0  0  0  0  0  0  0  0  0  0  0
    1.6824   -2.7537    2.6034 C   0  0  0  0  0  0  0  0  0  0  0  0
    1.2436   -5.0501    0.2715 C   0  0  0  0  0  0  0  0  0  0  0  0
   -0.0176   -4.4130    0.0981 C   0  0  0  0  0  0  0  0  0  0  0  0
   -1.1544   -5.0388   -0.4859 C   0  0  0  0  0  0  0  0  0  0  0  0
   -2.7185   -1.9574   -0.9981 C   0  0  0  0  0  0  0  0  0  0  0  0
   -3.0196   -0.6714   -0.5702 C   0  0  0  0  0  0  0  0  0  0  0  0
   -3.1009    0.3216   -1.4736 N   0  0  0  0  0  0  0  0  0  0  0  0
   -3.4058    1.5628   -1.0610 C   0  0  0  0  0  0  0  0  0  0  0  0
   -3.4875    2.5868   -1.9904 C   0  0  0  0  0  0  0  0  0  0  0  0
   -3.8043    3.9054   -1.6142 C   0  0  0  0  0  0  0  0  0  0  0  0
   -3.8885    4.9427   -2.5495 C   0  0  0  0  0  0  0  0  0  0  0  0
   -4.2075    6.2393   -2.1327 C   0  0  0  0  0  0  0  0  0  0  0  0
   -4.3028    7.3088   -3.0410 C   0  0  0  0  0  0  0  0  0  0  0  0
   -4.6963    9.4131   -3.2937 H   0  0  0  0  0  0  0  0  0  0  0  0
   -5.0987    9.7935   -0.8711 H   0  0  0  0  0  0  0  0  0  0  0  0
   -4.9294    7.9080    0.7211 H   0  0  0  0  0  0  0  0  0  0  0  0
   -4.1538    3.4325    1.7065 H   0  0  0  0  0  0  0  0  0  0  0  0
   -3.7523    1.0363    2.2726 H   0  0  0  0  0  0  0  0  0  0  0  0
   -3.3769   -1.3833    2.7646 H   0  0  0  0  0  0  0  0  0  0  0  0
   -2.8870   -3.6519    1.9500 H   0  0  0  0  0  0  0  0  0  0  0  0
   -5.0821   -3.6125   -1.0399 H   0  0  0  0  0  0  0  0  0  0  0  0
   -6.8549   -4.9041   -2.1008 H   0  0  0  0  0  0  0  0  0  0  0  0
   -6.4124   -7.2003   -2.9295 H   0  0  0  0  0  0  0  0  0  0  0  0
   -4.1750   -8.1872   -2.6748 H   0  0  0  0  0  0  0  0  0  0  0  0
   -1.8904   -8.0496   -1.9169 H   0  0  0  0  0  0  0  0  0  0  0  0
    0.3678   -8.0147   -1.1764 H   0  0  0  0  0  0  0  0  0  0  0  0
    2.6294   -8.0884   -0.4450 H   0  0  0  0  0  0  0  0  0  0  0  0
    4.9210   -8.2582    0.2776 H   0  0  0  0  0  0  0  0  0  0  0  0
    6.9055   -7.2944    1.3620 H   0  0  0  0  0  0  0  0  0  0  0  0
    6.8242   -4.9838    2.2646 H   0  0  0  0  0  0  0  0  0  0  0  0
    4.7866   -3.6586    2.0786 H   0  0  0  0  0  0  0  0  0  0  0  0
    3.4138   -2.2151   -0.2723 H   0  0  0  0  0  0  0  0  0  0  0  0
    4.7051    2.2108   -0.7858 H   0  0  0  0  0  0  0  0  0  0  0  0
    5.4083    4.5822   -1.1030 H   0  0  0  0  0  0  0  0  0  0  0  0
    6.0801    6.9713   -1.3614 H   0  0  0  0  0  0  0  0  0  0  0  0
    6.0651    9.2827   -0.4906 H   0  0  0  0  0  0  0  0  0  0  0  0
    4.9057    9.7884    1.6484 H   0  0  0  0  0  0  0  0  0  0  0  0
    3.7718    7.9799    2.8977 H   0  0  0  0  0  0  0  0  0  0  0  0
    2.4969    3.5367    3.4275 H   0  0  0  0  0  0  0  0  0  0  0  0
    1.8008    1.1618    3.7486 H   0  0  0  0  0  0  0  0  0  0  0  0
    1.1594   -1.2333    4.0233 H   0  0  0  0  0  0  0  0  0  0  0  0
    1.2140   -3.5465    3.1837 H   0  0  0  0  0  0  0  0  0  0  0  0
   -0.1213   -3.3838    0.4369 H   0  0  0  0  0  0  0  0  0  0  0  0
   -2.5409   -2.1182   -2.0604 H   0  0  0  0  0  0  0  0  0  0  0  0
   -3.2983    2.3456   -3.0344 H   0  0  0  0  0  0  0  0  0  0  0  0
   -3.7062    4.7414   -3.6027 H   0  0  0  0  0  0  0  0  0  0  0  0
   -4.1280    7.1496   -4.1026 H   0  0  0  0  0  0  0  0  0  0  0  0
  1  2  4  0
  2  3  4  0
  3  4  4  0
  4  5  4  0
  5  6  4  0
  6  7  4  0
  7  8  4  0
  8  9  4  0
  9 10  4  0
 10 11  4  0
 11 12  4  0
 12 13  4  0
 13 14  1  0
 14 15  4  0
 15 16  4  0
 16 17  4  0
 17 18  4  0
 18 19  4  0
 19 20  4  0
 20 21  4  0
 21 22  4  0
 22 23  4  0
 23 24  4  0
 24 25  4  0
 25 26  4  0
 26 27  4  0
 27 28  4  0
 28 29  4  0
 29 30  4  0
 30 31  4  0
 31 32  4  0
 32 33  1  0
 33 34  4  0
 34 35  4  0
 35 36  4  0
 36 37  4  0
 37 38  4  0
 38 39  4  0
 39 40  4  0
 40 41  4  0
 41 42  4  0
 42 43  4  0
 43 44  4  0
 44 45  4  0
 45 46  4  0
 46 47  4  0
 47 48  4  0
 48 49  4  0
 49 50  4  0
 50 51  4  0
 51 52  4  0
 52 53  4  0
 53 54  4  0
 32 55  4  0
 55 56  4  0
 56 57  4  0
 13 58  4  0
 58 59  4  0
 59 60  4  0
 60 61  4  0
 61 62  4  0
 62 63  4  0
 63 64  4  0
 64 65  4  0
 65 66  4  0
 66  1  4  0
 65  4  4  0
 63  6  4  0
 61  8  4  0
 59 10  4  0
 57 14  4  0
 20 15  4  0
 57 22  4  0
 55 24  4  0
 31 26  4  0
 54 33  4  0
 52 35  4  0
 50 37  4  0
 48 39  4  0
 46 41  4  0
  1 67  1  0
  2 68  1  0
  3 69  1  0
  7 70  1  0
  9 71  1  0
 11 72  1  0
 12 73  1  0
 16 74  1  0
 17 75  1  0
 18 76  1  0
 19 77  1  0
 21 78  1  0
 23 79  1  0
 25 80  1  0
 27 81  1  0
 28 82  1  0
 29 83  1  0
 30 84  1  0
 34 85  1  0
 38 86  1  0
 40 87  1  0
 42 88  1  0
 43 89  1  0
 44 90  1  0
 45 91  1  0
 49 92  1  0
 51 93  1  0
 53 94  1  0
 54 95  1  0
 56 96  1  0
 58 97  1  0
 62 98  1  0
 64 99  1  0
 66100  1  0
M  END
