
     RDKit          3D

100114  0  0  0  0  0  0  0  0999 V2000
    0.6920   -2.4800    6.2723 C   0  0  0  0  0  0  0  0  0  0  0  0
    0.6595   -1.2363    6.8924 C   0  0  0  0  0  0  0  0  0  0  0  0
    0.9756   -0.0860    6.1621 C   0  0  0  0  0  0  0  0  0  0  0  0
    1.3283   -0.1456    4.8198 C   0  0  0  0  0  0  0  0  0  0  0  0
    1.6405    0.9832    4.1615 N   0  0  0  0  0  0  0  0  0  0  0  0
    1.9904    0.9188    2.8653 C   0  0  0  0  0  0  0  0  0  0  0  0
    2.3189    2.0971    2.2227 C   0  0  0  0  0  0  0  0  0  0  0  0
    2.6958    2.1334    0.8718 C   0  0  0  0  0  0  0  0  0  0  0  0
    3.0175    3.3462    0.2511 C   0  0  0  0  0  0  0  0  0  0  0  0
    3.3890    3.3729   -1.0956 C   0  0  0  0  0  0  0  0  0  0  0  0
    3.7192    4.5701   -1.7569 C   0  0  0  0  0  0  0  0  0  0  0  0
    4.0809    4.5523   -3.1022 C   0  0  0  0  0  0  0  0  0  0  0  0
    4.1135    3.3430   -3.7872 C   0  0  0  0  0  0  0  0  0  0  0  0
    3.7858    2.1579   -3.1223 C   0  0  0  0  0  0  0  0  0  0  0  0
    3.4237    2.1492   -1.7825 C   0  0  0  0  0  0  0  0  0  0  0  0
    3.1216    0.9839   -1.1881 N   0  0  0  0  0  0  0  0  0  0  0  0
    2.7585    0.9533    0.1131 C   0  0  0  0  0  0  0  0  0  0  0  0
    2.4328   -0.2576    0.7519 C   0  0  0  0  0  0  0  0  0  0  0  0
    2.4736   -1.5330   -0.0265 C   0  0  0  0  0  0  0  0  0  0  0  0
    3.6776   -2.3077   -0.0691 C   0  0  0  0  0  0  0  0  0  0  0  0
    4.9080   -1.8919    0.4988 C   0  0  0  0  0  0  0  0  0  0  0  0
    6.0569   -2.6848    0.4406 C   0  0  0  0  0  0  0  0  0  0  0  0
    6.0107   -3.9213   -0.1857 C   0  0  0  0  0  0  0  0  0  0  0  0
    4.8162   -4.3600   -0.7530 C   0  0  0  0  0  0  0  0  0  0  0  0
    3.6536   -3.5702   -0.7022 C   0  0  0  0  0  0  0  0  0  0  0  0
    2.4621   -4.0418   -1.2673 C   0  0  0  0  0  0  0  0  0  0  0  0
    1.2813   -3.2877   -1.2444 C   0  0  0  0  0  0  0  0  0  0  0  0
    0.0971   -3.8071   -1.7921 C   0  0  0  0  0  0  0  0  0  0  0  0
   -1.1109   -3.0900   -1.7739 C   0  0  0  0  0  0  0  0  0  0  0  0
   -2.2787   -3.6688   -2.2864 C   0  0  0  0  0  0  0  0  0  0  0  0
   -3.5057   -2.9954   -2.2743 C   0  0  0  0  0  0  0  0  0  0  0  0
   -4.6561   -3.6270   -2.7801 C   0  0  0  0  0  0  0  0  0  0  0  0
   -5.8905   -2.9818   -2.7815 C   0  0  0  0  0  0  0  0  0  0  0  0
   -5.9891   -1.6934   -2.2790 C   0  0  0  0  0  0  0  0  0  0  0  0
   -4.8529   -1.0560   -1.7746 C   0  0  0  0  0  0  0  0  0  0  0  0
   -3.5808   -1.6828   -1.7576 C   0  0  0  0  0  0  0  0  0  0  0  0
   -2.3881   -1.0656   -1.2541 C   0  0  0  0  0  0  0  0  0  0  0  0
   -2.4328    0.3497   -0.7676 C   0  0  0  0  0  0  0  0  0  0  0  0
   -2.4124    1.3897   -1.7227 C   0  0  0  0  0  0  0  0  0  0  0  0
   -2.3551    1.1279   -3.0477 N   0  0  0  0  0  0  0  0  0  0  0  0
   -2.3442    2.1270   -3.9440 C   0  0  0  0  0  0  0  0  0  0  0  0
   -2.2851    1.8280   -5.2981 C   0  0  0  0  0  0  0  0  0  0  0  0
   -2.2762    2.8302   -6.2725 C   0  0  0  0  0  0  0  0  0  0  0  0
   -2.3268    4.1660   -5.8911 C   0  0  0  0  0  0  0  0  0  0  0  0
   -2.3860    4.4915   -4.5378 C   0  0  0  0  0  0  0  0  0  0  0  0
   -2.3947    3.4762   -3.5633 C   0  0  0  0  0  0  0  0  0  0  0  0
   -2.4552    3.7562   -2.1962 C   0  0  0  0  0  0  0  0  0  0  0  0
   -2.4661    2.7141   -1.2602 C   0  0  0  0  0  0  0  0  0  0  0  0
   -2.5333    2.9870    0.1121 C   0  0  0  0  0  0  0  0  0  0  0  0
   -2.5422    1.9847    1.0609 C   0  0  0  0  0  0  0  0  0  0  0  0
   -2.5985    2.3557    2.3487 N   0  0  0  0  0  0  0  0  0  0  0  0
   -2.5592    1.4161    3.3070 C   0  0  0  0  0  0  0  0  0  0  0  0
   -2.5763    1.7978    4.6423 C   0  0  0  0  0  0  0  0  0  0  0  0
   -2.5210    0.8578    5.6748 C   0  0  0  0  0  0  0  0  0  0  0  0
   -2.4511   -0.4967    5.3714 C   0  0  0  0  0  0  0  0  0  0  0  0
   -2.4483   -0.9056    4.0400 C   0  0  0  0  0  0  0  0  0  0  0  0
   -2.4998    0.0460    3.0070 C   0  0  0  0  0  0  0  0  0  0  0  0
   -2.4866   -0.3239    1.6569 C   0  0  0  0  0  0  0  0  0  0  0  0
   -2.4908    0.6470    0.6337 C   0  0  0  0  0  0  0  0  0  0  0  0
   -1.1495   -1.7902   -1.2402 C   0  0  0  0  0  0  0  0  0  0  0  0
    0.0620   -1.2841   -0.7030 C   0  0  0  0  0  0  0  0  0  0  0  0
    1.2777   -2.0136   -0.6540 C   0  0  0  0  0  0  0  0  0  0  0  0
    2.0476   -0.2788    2.1349 C   0  0  0  0  0  0  0  0  0  0  0  0
    1.7136   -1.4503    2.8477 C   0  0  0  0  0  0  0  0  0  0  0  0
    1.3549   -1.4034    4.1991 C   0  0  0  0  0  0  0  0  0  0  0  0
    1.0358   -2.5653    4.9255 C   0  0  0  0  0  0  0  0  0  0  0  0
    0.4489   -3.3783    6.8327 H   0  0  0  0  0  0  0  0  0  0  0  0
    0.3913   -1.1544    7.9423 H   0  0  0  0  0  0  0  0  0  0  0  0
    0.9516    0.8830    6.6548 H   0  0  0  0  0  0  0  0  0  0  0  0
    2.2789    3.0195    2.8003 H   0  0  0  0  0  0  0  0  0  0  0  0
    2.9765    4.2746    0.8166 H   0  0  0  0  0  0  0  0  0  0  0  0
    3.6947    5.5197   -1.2275 H   0  0  0  0  0  0  0  0  0  0  0  0
    4.3338    5.4775   -3.6132 H   0  0  0  0  0  0  0  0  0  0  0  0
    4.3885    3.3143   -4.8380 H   0  0  0  0  0  0  0  0  0  0  0  0
    3.8101    1.2141   -3.6625 H   0  0  0  0  0  0  0  0  0  0  0  0
    4.9898   -0.9242    0.9894 H   0  0  0  0  0  0  0  0  0  0  0  0
    6.9839   -2.3279    0.8812 H   0  0  0  0  0  0  0  0  0  0  0  0
    6.9007   -4.5425   -0.2371 H   0  0  0  0  0  0  0  0  0  0  0  0
    4.7987   -5.3322   -1.2412 H   0  0  0  0  0  0  0  0  0  0  0  0
    2.4534   -5.0244   -1.7370 H   0  0  0  0  0  0  0  0  0  0  0  0
    0.1124   -4.8034   -2.2323 H   0  0  0  0  0  0  0  0  0  0  0  0
   -2.2338   -4.6754   -2.7002 H   0  0  0  0  0  0  0  0  0  0  0  0
   -4.5972   -4.6354   -3.1841 H   0  0  0  0  0  0  0  0  0  0  0  0
   -6.7685   -3.4826   -3.1794 H   0  0  0  0  0  0  0  0  0  0  0  0
   -6.9442   -1.1751   -2.2823 H   0  0  0  0  0  0  0  0  0  0  0  0
   -4.9747   -0.0434   -1.3964 H   0  0  0  0  0  0  0  0  0  0  0  0
   -2.2447    0.7838   -5.6001 H   0  0  0  0  0  0  0  0  0  0  0  0
   -2.2301    2.5587   -7.3235 H   0  0  0  0  0  0  0  0  0  0  0  0
   -2.3199    4.9507   -6.6425 H   0  0  0  0  0  0  0  0  0  0  0  0
   -2.4256    5.5378   -4.2448 H   0  0  0  0  0  0  0  0  0  0  0  0
   -2.4945    4.7897   -1.8589 H   0  0  0  0  0  0  0  0  0  0  0  0
   -2.5708    4.0173    0.4620 H   0  0  0  0  0  0  0  0  0  0  0  0
   -2.6258    2.8568    4.8844 H   0  0  0  0  0  0  0  0  0  0  0  0
   -2.5269    1.1883    6.7100 H   0  0  0  0  0  0  0  0  0  0  0  0
   -2.3997   -1.2336    6.1681 H   0  0  0  0  0  0  0  0  0  0  0  0
   -2.3923   -1.9667    3.8103 H   0  0  0  0  0  0  0  0  0  0  0  0
   -2.4503   -1.3817    1.4051 H   0  0  0  0  0  0  0  0  0  0  0  0
    0.0596   -0.2744   -0.2985 H   0  0  0  0  0  0  0  0  0  0  0  0
    1.7386   -2.4170    2.3488 H   0  0  0  0  0  0  0  0  0  0  0  0
    1.0594   -3.5400    4.4431 H   0  0  0  0  0  0  0  0  0  0  0  0
  1  2  4  0
  2  3  4  0
  3  4  4  0
  4  5  4  0
  5  6  4  0
  6  7  4  0
  7  8  4  0
  8  9  4  0
  9 10  4  0
 10 11  4  0
 11 12  4  0
 12 13  4  0
 13 14  4  0
 14 15  4  0
 15 16  4  0
 16 17  4  0
 17 18  4  0
 18 19  1  0
 19 20  4  0
 20 21  4  0
 21 22  4  0
 22 23  4  0
 23 24  4  0
 24 25  4  0
 25 26  4  0
 26 27  4  0
 27 28  4  0
 28 29  4  0
 29 30  4  0
 30 31  4  0
 31 32  4  0
 32 33  4  0
 33 34  4  0
 34 35  4  0
 35 36  4  0
 36 37  4  0
 37 38  1  0
 38 39  4  0
 39 40  4  0
 40 41  4  0
 41 42  4  0
 42 43  4  0
 43 44  4  0
 44 45  4  0
 45 46  4  0
 46 47  4  0
 47 48  4  0
 48 49  4  0
 49 50  4  0
 50 51  4  0
 51 52  4  0
 52 53  4  0
 53 54  4  0
 54 55  4  0
 55 56  4  0
 56 57  4  0
 57 58  4  0
 58 59  4  0
 37 60  4  0
 60 61  4  0
 61 62  4  0
 18 63  4  0
 63 64  4  0
 64 65  4  0
 65 66  4  0
 66  1  4  0
 65  4  4  0
 63  6  4  0
 17  8  4  0
 62 19  4  0
 15 10  4  0
 25 20  4  0
 62 27  4  0
 60 29  4  0
 36 31  4  0
 59 38  4  0
 48 39  4  0
 59 50  4  0
 46 41  4  0
 57 52  4  0
  1 67  1  0
  2 68  1  0
  3 69  1  0
  7 70  1  0
  9 71  1  0
 11 72  1  0
 12 73  1  0
 13 74  1  0
 14 75  1  0
 21 76  1  0
 22 77  1  0
 23 78  1  0
 24 79  1  0
 26 80  1  0
 28 81  1  0
 30 82  1  0
 32 83  1  0
 33 84  1  0
 34 85  1  0
 35 86  1  0
 42 87  1  0
 43 88  1  0
 44 89  1  0
 45 90  1  0
 47 91  1  0
 49 92  1  0
 53 93  1  0
 54 94  1  0
 55 95  1  0
 56 96  1  0
 58 97  1  0
 61 98  1  0
 64 99  1  0
 66100  1  0
M  END
