
     RDKit          3D

100114  0  0  0  0  0  0  0  0999 V2000
   10.5509    2.7502    2.5255 C   0  0  0  0  0  0  0  0  0  0  0  0
    9.6128    1.7853    2.1652 C   0  0  0  0  0  0  0  0  0  0  0  0
    8.3781    2.1674    1.6097 C   0  0  0  0  0  0  0  0  0  0  0  0
    7.4126    1.2261    1.2361 C   0  0  0  0  0  0  0  0  0  0  0  0
    6.1966    1.6472    0.6860 C   0  0  0  0  0  0  0  0  0  0  0  0
    5.1995    0.7345    0.2947 C   0  0  0  0  0  0  0  0  0  0  0  0
    3.9983    1.1569   -0.2515 C   0  0  0  0  0  0  0  0  0  0  0  0
    3.0823    0.2460   -0.6116 N   0  0  0  0  0  0  0  0  0  0  0  0
    1.9036    0.6351   -1.1482 C   0  0  0  0  0  0  0  0  0  0  0  0
    0.9317   -0.3067   -1.5362 C   0  0  0  0  0  0  0  0  0  0  0  0
    1.1423   -1.7681   -1.3426 C   0  0  0  0  0  0  0  0  0  0  0  0
    1.8782   -2.5251   -2.3081 C   0  0  0  0  0  0  0  0  0  0  0  0
    2.4940   -1.9601   -3.4528 C   0  0  0  0  0  0  0  0  0  0  0  0
    3.2023   -2.7365   -4.3721 C   0  0  0  0  0  0  0  0  0  0  0  0
    3.3147   -4.1048   -4.1765 C   0  0  0  0  0  0  0  0  0  0  0  0
    2.7179   -4.6929   -3.0635 C   0  0  0  0  0  0  0  0  0  0  0  0
    2.0021   -3.9220   -2.1309 C   0  0  0  0  0  0  0  0  0  0  0  0
    1.3995   -4.5417   -1.0286 C   0  0  0  0  0  0  0  0  0  0  0  0
    0.6738   -3.8142   -0.0765 C   0  0  0  0  0  0  0  0  0  0  0  0
    0.0551   -4.4696    1.0027 C   0  0  0  0  0  0  0  0  0  0  0  0
   -0.6966   -3.7761    1.9675 C   0  0  0  0  0  0  0  0  0  0  0  0
   -1.3270   -4.4687    3.0103 C   0  0  0  0  0  0  0  0  0  0  0  0
   -2.0965   -3.8102    3.9784 C   0  0  0  0  0  0  0  0  0  0  0  0
   -2.7266   -4.5477    4.9975 C   0  0  0  0  0  0  0  0  0  0  0  0
   -3.5029   -3.9179    5.9681 C   0  0  0  0  0  0  0  0  0  0  0  0
   -3.6614   -2.5407    5.9304 C   0  0  0  0  0  0  0  0  0  0  0  0
   -3.0391   -1.7971    4.9246 C   0  0  0  0  0  0  0  0  0  0  0  0
   -2.2371   -2.4046    3.9262 C   0  0  0  0  0  0  0  0  0  0  0  0
   -1.5764   -1.6802    2.8832 C   0  0  0  0  0  0  0  0  0  0  0  0
   -1.6360   -0.1927    2.8490 C   0  0  0  0  0  0  0  0  0  0  0  0
   -2.4860    0.4915    1.9574 C   0  0  0  0  0  0  0  0  0  0  0  0
   -3.3145   -0.1769    1.1227 N   0  0  0  0  0  0  0  0  0  0  0  0
   -4.0887    0.4930    0.2559 C   0  0  0  0  0  0  0  0  0  0  0  0
   -4.9223   -0.2097   -0.5986 C   0  0  0  0  0  0  0  0  0  0  0  0
   -5.7499    0.4452   -1.5301 C   0  0  0  0  0  0  0  0  0  0  0  0
   -6.5935   -0.2597   -2.3955 C   0  0  0  0  0  0  0  0  0  0  0  0
   -7.3989    0.4307   -3.3074 C   0  0  0  0  0  0  0  0  0  0  0  0
   -8.2595   -0.2409   -4.1940 C   0  0  0  0  0  0  0  0  0  0  0  0
   -9.0475    0.4786   -5.0896 C   0  0  0  0  0  0  0  0  0  0  0  0
   -8.9782    1.8668   -5.1019 C   0  0  0  0  0  0  0  0  0  0  0  0
   -8.1208    2.5288   -4.2178 C   0  0  0  0  0  0  0  0  0  0  0  0
   -7.3245    1.8367   -3.3151 C   0  0  0  0  0  0  0  0  0  0  0  0
   -6.5168    2.5219   -2.4863 N   0  0  0  0  0  0  0  0  0  0  0  0
   -5.7484    1.8467   -1.6152 C   0  0  0  0  0  0  0  0  0  0  0  0
   -4.9147    2.5475   -0.7590 C   0  0  0  0  0  0  0  0  0  0  0  0
   -4.0888    1.8909    0.1726 C   0  0  0  0  0  0  0  0  0  0  0  0
   -3.2460    2.5915    1.0391 C   0  0  0  0  0  0  0  0  0  0  0  0
   -2.4311    1.9019    1.9430 C   0  0  0  0  0  0  0  0  0  0  0  0
   -1.5705    2.6016    2.8042 C   0  0  0  0  0  0  0  0  0  0  0  0
   -0.7442    1.9156    3.6845 C   0  0  0  0  0  0  0  0  0  0  0  0
   -0.7732    0.5272    3.7031 C   0  0  0  0  0  0  0  0  0  0  0  0
   -0.8175   -2.3789    1.8873 C   0  0  0  0  0  0  0  0  0  0  0  0
   -0.1695   -1.7409    0.7996 C   0  0  0  0  0  0  0  0  0  0  0  0
    0.5537   -2.4213   -0.2107 C   0  0  0  0  0  0  0  0  0  0  0  0
   -0.2905    0.1225   -2.0982 C   0  0  0  0  0  0  0  0  0  0  0  0
   -0.5621    1.4733   -2.2724 C   0  0  0  0  0  0  0  0  0  0  0  0
    0.3887    2.4123   -1.8941 C   0  0  0  0  0  0  0  0  0  0  0  0
    1.6129    2.0034   -1.3385 C   0  0  0  0  0  0  0  0  0  0  0  0
    2.5753    2.9465   -0.9593 C   0  0  0  0  0  0  0  0  0  0  0  0
    3.7916    2.5330   -0.4070 C   0  0  0  0  0  0  0  0  0  0  0  0
    4.7883    3.4474   -0.0154 C   0  0  0  0  0  0  0  0  0  0  0  0
    5.9914    3.0271    0.5296 C   0  0  0  0  0  0  0  0  0  0  0  0
    6.9103    3.9410    0.8849 N   0  0  0  0  0  0  0  0  0  0  0  0
    8.0774    3.5284    1.4120 C   0  0  0  0  0  0  0  0  0  0  0  0
    9.0306    4.4690    1.7799 C   0  0  0  0  0  0  0  0  0  0  0  0
   10.2596    4.0955    2.3326 C   0  0  0  0  0  0  0  0  0  0  0  0
   11.5043    2.4529    2.9546 H   0  0  0  0  0  0  0  0  0  0  0  0
    9.8482    0.7346    2.3187 H   0  0  0  0  0  0  0  0  0  0  0  0
    7.6069    0.1646    1.3726 H   0  0  0  0  0  0  0  0  0  0  0  0
    5.3560   -0.3357    0.4155 H   0  0  0  0  0  0  0  0  0  0  0  0
    2.4336   -0.8898   -3.6379 H   0  0  0  0  0  0  0  0  0  0  0  0
    3.6658   -2.2663   -5.2351 H   0  0  0  0  0  0  0  0  0  0  0  0
    3.8657   -4.7152   -4.8866 H   0  0  0  0  0  0  0  0  0  0  0  0
    2.8162   -5.7682   -2.9289 H   0  0  0  0  0  0  0  0  0  0  0  0
    1.4931   -5.6203   -0.9114 H   0  0  0  0  0  0  0  0  0  0  0  0
    0.1489   -5.5514    1.0855 H   0  0  0  0  0  0  0  0  0  0  0  0
   -1.2250   -5.5518    3.0628 H   0  0  0  0  0  0  0  0  0  0  0  0
   -2.6189   -5.6298    5.0406 H   0  0  0  0  0  0  0  0  0  0  0  0
   -3.9855   -4.5033    6.7457 H   0  0  0  0  0  0  0  0  0  0  0  0
   -4.2711   -2.0384    6.6764 H   0  0  0  0  0  0  0  0  0  0  0  0
   -3.2000   -0.7211    4.9211 H   0  0  0  0  0  0  0  0  0  0  0  0
   -4.9263   -1.2960   -0.5316 H   0  0  0  0  0  0  0  0  0  0  0  0
   -6.6224   -1.3464   -2.3593 H   0  0  0  0  0  0  0  0  0  0  0  0
   -8.3187   -1.3269   -4.1900 H   0  0  0  0  0  0  0  0  0  0  0  0
   -9.7120   -0.0421   -5.7743 H   0  0  0  0  0  0  0  0  0  0  0  0
   -9.5876    2.4398   -5.7958 H   0  0  0  0  0  0  0  0  0  0  0  0
   -8.0722    3.6151   -4.2336 H   0  0  0  0  0  0  0  0  0  0  0  0
   -4.9083    3.6331   -0.8229 H   0  0  0  0  0  0  0  0  0  0  0  0
   -3.2191    3.6784    1.0045 H   0  0  0  0  0  0  0  0  0  0  0  0
   -1.5315    3.6886    2.7859 H   0  0  0  0  0  0  0  0  0  0  0  0
   -0.0715    2.4575    4.3438 H   0  0  0  0  0  0  0  0  0  0  0  0
   -0.1098   -0.0109    4.3787 H   0  0  0  0  0  0  0  0  0  0  0  0
   -0.2462   -0.6586    0.7244 H   0  0  0  0  0  0  0  0  0  0  0  0
   -1.0405   -0.6138   -2.3841 H   0  0  0  0  0  0  0  0  0  0  0  0
   -1.5125    1.7883   -2.6951 H   0  0  0  0  0  0  0  0  0  0  0  0
    0.1696    3.4685   -2.0338 H   0  0  0  0  0  0  0  0  0  0  0  0
    2.3794    4.0077   -1.0962 H   0  0  0  0  0  0  0  0  0  0  0  0
    4.6287    4.5165   -0.1390 H   0  0  0  0  0  0  0  0  0  0  0  0
    8.8102    5.5235    1.6316 H   0  0  0  0  0  0  0  0  0  0  0  0
   10.9830    4.8581    2.6095 H   0  0  0  0  0  0  0  0  0  0  0  0
  1  2  4  0
  2  3  4  0
  3  4  4  0
  4  5  4  0
  5  6  4  0
  6  7  4  0
  7  8  4  0
  8  9  4  0
  9 10  4  0
 10 11  1  0
 11 12  4  0
 12 13  4  0
 13 14  4  0
 14 15  4  0
 15 16  4  0
 16 17  4  0
 17 18  4  0
 18 19  4  0
 19 20  4  0
 20 21  4  0
 21 22  4  0
 22 23  4  0
 23 24  4  0
 24 25  4  0
 25 26  4  0
 26 27  4  0
 27 28  4  0
 28 29  4  0
 29 30  1  0
 30 31  4  0
 31 32  4  0
 32 33  4  0
 33 34  4  0
 34 35  4  0
 35 36  4  0
 36 37  4  0
 37 38  4  0
 38 39  4  0
 39 40  4  0
 40 41  4  0
 41 42  4  0
 42 43  4  0
 43 44  4  0
 44 45  4  0
 45 46  4  0
 46 47  4  0
 47 48  4  0
 48 49  4  0
 49 50  4  0
 50 51  4  0
 29 52  4  0
 52 53  4  0
 53 54  4  0
 10 55  4  0
 55 56  4  0
 56 57  4  0
 57 58  4  0
 58 59  4  0
 59 60  4  0
 60 61  4  0
 61 62  4  0
 62 63  4  0
 63 64  4  0
 64 65  4  0
 65 66  4  0
 66  1  4  0
 64  3  4  0
 62  5  4  0
 60  7  4  0
 58  9  4  0
 54 11  4  0
 17 12  4  0
 54 19  4  0
 52 21  4  0
 28 23  4  0
 51 30  4  0
 48 31  4  0
 46 33  4  0
 44 35  4  0
 42 37  4  0
  1 67  1  0
  2 68  1  0
  4 69  1  0
  6 70  1  0
 13 71  1  0
 14 72  1  0
 15 73  1  0
 16 74  1  0
 18 75  1  0
 20 76  1  0
 22 77  1  0
 24 78  1  0
 25 79  1  0
 26 80  1  0
 27 81  1  0
 34 82  1  0
 36 83  1  0
 38 84  1  0
 39 85  1  0
 40 86  1  0
 41 87  1  0
 45 88  1  0
 47 89  1  0
 49 90  1  0
 50 91  1  0
 51 92  1  0
 53 93  1  0
 55 94  1  0
 56 95  1  0
 57 96  1  0
 59 97  1  0
 61 98  1  0
 65 99  1  0
 66100  1  0
M  END
