
     RDKit          3D

 96110  0  0  0  0  0  0  0  0999 V2000
    4.5810    2.1172    3.6030 C   0  0  0  0  0  0  0  0  0  0  0  0
    5.0650    0.9372    3.0746 C   0  0  0  0  0  0  0  0  0  0  0  0
    4.5692    0.4559    1.8620 C   0  0  0  0  0  0  0  0  0  0  0  0
    3.5470    1.1611    1.1414 C   0  0  0  0  0  0  0  0  0  0  0  0
    3.0666    2.3850    1.6656 C   0  0  0  0  0  0  0  0  0  0  0  0
    3.6041    2.8233    2.9080 C   0  0  0  0  0  0  0  0  0  0  0  0
    2.0840    3.1231    0.9415 C   0  0  0  0  0  0  0  0  0  0  0  0
    1.6372    4.4028    1.3702 C   0  0  0  0  0  0  0  0  0  0  0  0
    0.6580    5.1274    0.7021 C   0  0  0  0  0  0  0  0  0  0  0  0
    0.0757    4.5857   -0.4238 C   0  0  0  0  0  0  0  0  0  0  0  0
    0.4871    3.3391   -0.8988 C   0  0  0  0  0  0  0  0  0  0  0  0
    1.5174    2.5822   -0.2479 C   0  0  0  0  0  0  0  0  0  0  0  0
    1.9462    1.3219   -0.7795 C   0  0  0  0  0  0  0  0  0  0  0  0
    1.2266    0.8507   -1.9532 C   0  0  0  0  0  0  0  0  0  0  0  0
    1.3907   -0.4841   -2.6013 C   0  0  0  0  0  0  0  0  0  0  0  0
    2.1252   -0.6059   -3.8255 C   0  0  0  0  0  0  0  0  0  0  0  0
    2.8374    0.4618   -4.4255 C   0  0  0  0  0  0  0  0  0  0  0  0
    3.5444    0.3003   -5.6189 C   0  0  0  0  0  0  0  0  0  0  0  0
    3.5601   -0.9351   -6.2498 C   0  0  0  0  0  0  0  0  0  0  0  0
    2.8729   -2.0068   -5.6835 C   0  0  0  0  0  0  0  0  0  0  0  0
    2.1605   -1.8581   -4.4806 C   0  0  0  0  0  0  0  0  0  0  0  0
    1.4787   -2.9519   -3.9308 C   0  0  0  0  0  0  0  0  0  0  0  0
    0.7635   -2.8522   -2.7300 C   0  0  0  0  0  0  0  0  0  0  0  0
    0.0803   -3.9653   -2.2086 C   0  0  0  0  0  0  0  0  0  0  0  0
   -0.6424   -3.9006   -1.0039 C   0  0  0  0  0  0  0  0  0  0  0  0
   -1.3206   -5.0262   -0.5173 C   0  0  0  0  0  0  0  0  0  0  0  0
   -2.0420   -4.9959    0.6839 C   0  0  0  0  0  0  0  0  0  0  0  0
   -2.7153   -6.1471    1.1285 C   0  0  0  0  0  0  0  0  0  0  0  0
   -3.4425   -6.1423    2.3170 C   0  0  0  0  0  0  0  0  0  0  0  0
   -3.5078   -4.9834    3.0763 C   0  0  0  0  0  0  0  0  0  0  0  0
   -2.8420   -3.8337    2.6464 C   0  0  0  0  0  0  0  0  0  0  0  0
   -2.0887   -3.8069    1.4464 C   0  0  0  0  0  0  0  0  0  0  0  0
   -1.3952   -2.6488    0.9665 C   0  0  0  0  0  0  0  0  0  0  0  0
   -1.3311   -1.4077    1.7939 C   0  0  0  0  0  0  0  0  0  0  0  0
   -2.0365   -0.1700    1.5035 C   0  0  0  0  0  0  0  0  0  0  0  0
   -3.0759    0.0282    0.4989 C   0  0  0  0  0  0  0  0  0  0  0  0
   -3.7085   -1.0212   -0.2199 C   0  0  0  0  0  0  0  0  0  0  0  0
   -4.6529   -0.8202   -1.2262 C   0  0  0  0  0  0  0  0  0  0  0  0
   -5.0317    0.4635   -1.5566 C   0  0  0  0  0  0  0  0  0  0  0  0
   -4.4955    1.5427   -0.8598 C   0  0  0  0  0  0  0  0  0  0  0  0
   -3.5349    1.3391    0.1865 C   0  0  0  0  0  0  0  0  0  0  0  0
   -3.0574    2.4614    0.9037 C   0  0  0  0  0  0  0  0  0  0  0  0
   -3.5162    3.7436    0.4952 C   0  0  0  0  0  0  0  0  0  0  0  0
   -4.4299    3.9268   -0.5381 C   0  0  0  0  0  0  0  0  0  0  0  0
   -4.9256    2.8245   -1.2064 C   0  0  0  0  0  0  0  0  0  0  0  0
   -2.1543    2.2685    1.9914 C   0  0  0  0  0  0  0  0  0  0  0  0
   -1.7390    3.3401    2.8259 C   0  0  0  0  0  0  0  0  0  0  0  0
   -0.8321    3.1811    3.8669 C   0  0  0  0  0  0  0  0  0  0  0  0
   -0.2946    1.9340    4.1058 C   0  0  0  0  0  0  0  0  0  0  0  0
   -0.6781    0.8427    3.3256 C   0  0  0  0  0  0  0  0  0  0  0  0
   -1.6359    0.9719    2.2665 C   0  0  0  0  0  0  0  0  0  0  0  0
   -0.0820   -0.3753    3.6082 C   0  0  0  0  0  0  0  0  0  0  0  0
   -0.3881   -1.4786    2.8410 C   0  0  0  0  0  0  0  0  0  0  0  0
   -0.6796   -2.7003   -0.2757 C   0  0  0  0  0  0  0  0  0  0  0  0
    0.0086   -1.5933   -0.8277 C   0  0  0  0  0  0  0  0  0  0  0  0
    0.7231   -1.6254   -2.0474 C   0  0  0  0  0  0  0  0  0  0  0  0
    0.2031    1.6267   -2.5386 C   0  0  0  0  0  0  0  0  0  0  0  0
   -0.1517    2.8561   -2.0279 C   0  0  0  0  0  0  0  0  0  0  0  0
    3.0346    0.6396   -0.0822 C   0  0  0  0  0  0  0  0  0  0  0  0
    3.6649   -0.5494   -0.5387 C   0  0  0  0  0  0  0  0  0  0  0  0
    4.6646   -1.2257    0.1604 C   0  0  0  0  0  0  0  0  0  0  0  0
    5.1048   -0.7292    1.3677 C   0  0  0  0  0  0  0  0  0  0  0  0
    4.9621    2.4938    4.5479 H   0  0  0  0  0  0  0  0  0  0  0  0
    5.8366    0.3959    3.6171 H   0  0  0  0  0  0  0  0  0  0  0  0
    3.2592    3.7385    3.3787 H   0  0  0  0  0  0  0  0  0  0  0  0
    2.0529    4.8792    2.2520 H   0  0  0  0  0  0  0  0  0  0  0  0
    0.3471    6.1004    1.0702 H   0  0  0  0  0  0  0  0  0  0  0  0
   -0.7099    5.1455   -0.9269 H   0  0  0  0  0  0  0  0  0  0  0  0
    2.8575    1.4435   -3.9550 H   0  0  0  0  0  0  0  0  0  0  0  0
    4.0828    1.1416   -6.0476 H   0  0  0  0  0  0  0  0  0  0  0  0
    4.1078   -1.0675   -7.1791 H   0  0  0  0  0  0  0  0  0  0  0  0
    2.8999   -2.9683   -6.1924 H   0  0  0  0  0  0  0  0  0  0  0  0
    1.5062   -3.9082   -4.4514 H   0  0  0  0  0  0  0  0  0  0  0  0
    0.1102   -4.9062   -2.7561 H   0  0  0  0  0  0  0  0  0  0  0  0
   -1.2875   -5.9514   -1.0908 H   0  0  0  0  0  0  0  0  0  0  0  0
   -2.6789   -7.0651    0.5455 H   0  0  0  0  0  0  0  0  0  0  0  0
   -3.9579   -7.0405    2.6451 H   0  0  0  0  0  0  0  0  0  0  0  0
   -4.0773   -4.9652    4.0017 H   0  0  0  0  0  0  0  0  0  0  0  0
   -2.9273   -2.9403    3.2629 H   0  0  0  0  0  0  0  0  0  0  0  0
   -3.5015   -2.0592    0.0010 H   0  0  0  0  0  0  0  0  0  0  0  0
   -5.0854   -1.6731   -1.7421 H   0  0  0  0  0  0  0  0  0  0  0  0
   -5.7634    0.6098   -2.3473 H   0  0  0  0  0  0  0  0  0  0  0  0
   -3.1452    4.6485    0.9676 H   0  0  0  0  0  0  0  0  0  0  0  0
   -4.7513    4.9272   -0.8144 H   0  0  0  0  0  0  0  0  0  0  0  0
   -5.6480    2.9760   -2.0052 H   0  0  0  0  0  0  0  0  0  0  0  0
   -2.1217    4.3458    2.6849 H   0  0  0  0  0  0  0  0  0  0  0  0
   -0.5390    4.0318    4.4743 H   0  0  0  0  0  0  0  0  0  0  0  0
    0.4343    1.8220    4.9051 H   0  0  0  0  0  0  0  0  0  0  0  0
    0.6597   -0.4751    4.3969 H   0  0  0  0  0  0  0  0  0  0  0  0
    0.1424   -2.4104    3.0351 H   0  0  0  0  0  0  0  0  0  0  0  0
   -0.0119   -0.6542   -0.2792 H   0  0  0  0  0  0  0  0  0  0  0  0
   -0.3412    1.2476   -3.4033 H   0  0  0  0  0  0  0  0  0  0  0  0
   -0.9514    3.4116   -2.5118 H   0  0  0  0  0  0  0  0  0  0  0  0
    3.4115   -0.9963   -1.4889 H   0  0  0  0  0  0  0  0  0  0  0  0
    5.0926   -2.1361   -0.2508 H   0  0  0  0  0  0  0  0  0  0  0  0
    5.8815   -1.2666    1.9060 H   0  0  0  0  0  0  0  0  0  0  0  0
  1  2  4  0
  2  3  4  0
  3  4  4  0
  4  5  4  0
  5  6  4  0
  5  7  4  0
  7  8  4  0
  8  9  4  0
  9 10  4  0
 10 11  4  0
 11 12  4  0
 12 13  4  0
 13 14  4  0
 14 15  1  0
 15 16  4  0
 16 17  4  0
 17 18  4  0
 18 19  4  0
 19 20  4  0
 20 21  4  0
 21 22  4  0
 22 23  4  0
 23 24  4  0
 24 25  4  0
 25 26  4  0
 26 27  4  0
 27 28  4  0
 28 29  4  0
 29 30  4  0
 30 31  4  0
 31 32  4  0
 32 33  4  0
 33 34  1  0
 34 35  4  0
 35 36  4  0
 36 37  4  0
 37 38  4  0
 38 39  4  0
 39 40  4  0
 40 41  4  0
 41 42  4  0
 42 43  4  0
 43 44  4  0
 44 45  4  0
 42 46  4  0
 46 47  4  0
 47 48  4  0
 48 49  4  0
 49 50  4  0
 50 51  4  0
 50 52  4  0
 52 53  4  0
 33 54  4  0
 54 55  4  0
 55 56  4  0
 14 57  4  0
 57 58  4  0
 13 59  4  0
 59 60  4  0
 60 61  4  0
 61 62  4  0
  6  1  4  0
 12  7  4  0
 56 15  4  0
 62  3  4  0
 59  4  4  0
 58 11  4  0
 21 16  4  0
 56 23  4  0
 54 25  4  0
 32 27  4  0
 53 34  4  0
 51 35  4  0
 41 36  4  0
 51 46  4  0
 45 40  4  0
  1 63  1  0
  2 64  1  0
  6 65  1  0
  8 66  1  0
  9 67  1  0
 10 68  1  0
 17 69  1  0
 18 70  1  0
 19 71  1  0
 20 72  1  0
 22 73  1  0
 24 74  1  0
 26 75  1  0
 28 76  1  0
 29 77  1  0
 30 78  1  0
 31 79  1  0
 37 80  1  0
 38 81  1  0
 39 82  1  0
 43 83  1  0
 44 84  1  0
 45 85  1  0
 47 86  1  0
 48 87  1  0
 49 88  1  0
 52 89  1  0
 53 90  1  0
 55 91  1  0
 57 92  1  0
 58 93  1  0
 60 94  1  0
 61 95  1  0
 62 96  1  0
M  END
