
     RDKit          3D

 96110  0  0  0  0  0  0  0  0999 V2000
   -1.6379    5.8766    0.2372 C   0  0  0  0  0  0  0  0  0  0  0  0
   -2.0765    5.9614   -1.0715 C   0  0  0  0  0  0  0  0  0  0  0  0
   -2.4560    4.8079   -1.7597 C   0  0  0  0  0  0  0  0  0  0  0  0
   -2.3959    3.5257   -1.1263 C   0  0  0  0  0  0  0  0  0  0  0  0
   -1.9403    3.4231    0.2128 C   0  0  0  0  0  0  0  0  0  0  0  0
   -1.5731    4.6325    0.8617 C   0  0  0  0  0  0  0  0  0  0  0  0
   -1.8749    2.1364    0.8445 C   0  0  0  0  0  0  0  0  0  0  0  0
   -1.4090    1.9636    2.1700 C   0  0  0  0  0  0  0  0  0  0  0  0
   -1.3578    0.7221    2.7904 C   0  0  0  0  0  0  0  0  0  0  0  0
   -1.7716   -0.4030    2.1007 C   0  0  0  0  0  0  0  0  0  0  0  0
   -2.2287   -0.3189    0.7739 C   0  0  0  0  0  0  0  0  0  0  0  0
   -2.2836    0.9698    0.1378 C   0  0  0  0  0  0  0  0  0  0  0  0
   -2.7393    1.0849   -1.2042 C   0  0  0  0  0  0  0  0  0  0  0  0
   -3.1237   -0.1045   -1.8622 C   0  0  0  0  0  0  0  0  0  0  0  0
   -3.0585   -1.3530   -1.2523 C   0  0  0  0  0  0  0  0  0  0  0  0
   -2.6113   -1.4852    0.0633 C   0  0  0  0  0  0  0  0  0  0  0  0
   -2.5066   -2.8671    0.6142 C   0  0  0  0  0  0  0  0  0  0  0  0
   -3.6667   -3.5334    1.1193 C   0  0  0  0  0  0  0  0  0  0  0  0
   -4.9431   -2.9262    1.2215 C   0  0  0  0  0  0  0  0  0  0  0  0
   -6.0524   -3.6151    1.7177 C   0  0  0  0  0  0  0  0  0  0  0  0
   -5.9186   -4.9334    2.1280 C   0  0  0  0  0  0  0  0  0  0  0  0
   -4.6759   -5.5582    2.0439 C   0  0  0  0  0  0  0  0  0  0  0  0
   -3.5512   -4.8756    1.5479 C   0  0  0  0  0  0  0  0  0  0  0  0
   -2.3126   -5.5278    1.4742 C   0  0  0  0  0  0  0  0  0  0  0  0
   -1.1621   -4.8821    1.0025 C   0  0  0  0  0  0  0  0  0  0  0  0
    0.0693   -5.5607    0.9448 C   0  0  0  0  0  0  0  0  0  0  0  0
    1.2494   -4.9323    0.5070 C   0  0  0  0  0  0  0  0  0  0  0  0
    2.4627   -5.6328    0.4636 C   0  0  0  0  0  0  0  0  0  0  0  0
    3.6575   -5.0210    0.0582 C   0  0  0  0  0  0  0  0  0  0  0  0
    4.8523   -5.7613    0.0262 C   0  0  0  0  0  0  0  0  0  0  0  0
    6.0550   -5.1709   -0.3573 C   0  0  0  0  0  0  0  0  0  0  0  0
    6.0791   -3.8300   -0.7121 C   0  0  0  0  0  0  0  0  0  0  0  0
    4.8994   -3.0833   -0.6856 C   0  0  0  0  0  0  0  0  0  0  0  0
    3.6601   -3.6548   -0.3057 C   0  0  0  0  0  0  0  0  0  0  0  0
    2.4313   -2.9274   -0.2627 C   0  0  0  0  0  0  0  0  0  0  0  0
    2.4018   -1.4700   -0.5702 C   0  0  0  0  0  0  0  0  0  0  0  0
    2.1454   -1.0775   -1.8828 C   0  0  0  0  0  0  0  0  0  0  0  0
    2.0191    0.2705   -2.2061 C   0  0  0  0  0  0  0  0  0  0  0  0
    2.1471    1.3026   -1.2471 C   0  0  0  0  0  0  0  0  0  0  0  0
    1.9985    2.6894   -1.5816 C   0  0  0  0  0  0  0  0  0  0  0  0
    1.6873    3.1474   -2.8895 C   0  0  0  0  0  0  0  0  0  0  0  0
    1.5509    4.4978   -3.2045 C   0  0  0  0  0  0  0  0  0  0  0  0
    1.7229    5.4508   -2.2172 C   0  0  0  0  0  0  0  0  0  0  0  0
    2.0278    5.0611   -0.9121 C   0  0  0  0  0  0  0  0  0  0  0  0
    2.1654    3.6769   -0.5766 C   0  0  0  0  0  0  0  0  0  0  0  0
    2.4702    3.3045    0.7576 C   0  0  0  0  0  0  0  0  0  0  0  0
    2.6387    4.3556    1.6987 C   0  0  0  0  0  0  0  0  0  0  0  0
    2.5056    5.7008    1.3606 C   0  0  0  0  0  0  0  0  0  0  0  0
    2.1974    6.0499    0.0584 C   0  0  0  0  0  0  0  0  0  0  0  0
    2.5939    1.9166    1.0952 C   0  0  0  0  0  0  0  0  0  0  0  0
    2.8724    1.4786    2.4127 C   0  0  0  0  0  0  0  0  0  0  0  0
    2.9868    0.1359    2.7455 C   0  0  0  0  0  0  0  0  0  0  0  0
    2.8314   -0.8242    1.7624 C   0  0  0  0  0  0  0  0  0  0  0  0
    2.5597   -0.4716    0.4277 C   0  0  0  0  0  0  0  0  0  0  0  0
    2.4348    0.9186    0.0907 C   0  0  0  0  0  0  0  0  0  0  0  0
    1.2168   -3.5831    0.1210 C   0  0  0  0  0  0  0  0  0  0  0  0
   -0.0415   -2.9354    0.1490 C   0  0  0  0  0  0  0  0  0  0  0  0
   -1.2435   -3.5446    0.5818 C   0  0  0  0  0  0  0  0  0  0  0  0
   -2.7935    2.3682   -1.8427 C   0  0  0  0  0  0  0  0  0  0  0  0
   -3.2324    2.5577   -3.1806 C   0  0  0  0  0  0  0  0  0  0  0  0
   -3.2833    3.8100   -3.7892 C   0  0  0  0  0  0  0  0  0  0  0  0
   -2.8967    4.9314   -3.0782 C   0  0  0  0  0  0  0  0  0  0  0  0
   -1.3459    6.7739    0.7762 H   0  0  0  0  0  0  0  0  0  0  0  0
   -2.1218    6.9379   -1.5484 H   0  0  0  0  0  0  0  0  0  0  0  0
   -1.2261    4.6347    1.8903 H   0  0  0  0  0  0  0  0  0  0  0  0
   -1.0625    2.8047    2.7615 H   0  0  0  0  0  0  0  0  0  0  0  0
   -0.9872    0.6339    3.8075 H   0  0  0  0  0  0  0  0  0  0  0  0
   -1.7180   -1.3591    2.6172 H   0  0  0  0  0  0  0  0  0  0  0  0
   -3.4801   -0.0966   -2.8874 H   0  0  0  0  0  0  0  0  0  0  0  0
   -3.3493   -2.2349   -1.8208 H   0  0  0  0  0  0  0  0  0  0  0  0
   -5.0870   -1.8905    0.9182 H   0  0  0  0  0  0  0  0  0  0  0  0
   -7.0157   -3.1159    1.7831 H   0  0  0  0  0  0  0  0  0  0  0  0
   -6.7771   -5.4750    2.5157 H   0  0  0  0  0  0  0  0  0  0  0  0
   -4.5905   -6.5917    2.3733 H   0  0  0  0  0  0  0  0  0  0  0  0
   -2.2403   -6.5642    1.8013 H   0  0  0  0  0  0  0  0  0  0  0  0
    0.1125   -6.6032    1.2585 H   0  0  0  0  0  0  0  0  0  0  0  0
    2.4784   -6.6817    0.7566 H   0  0  0  0  0  0  0  0  0  0  0  0
    4.8556   -6.8132    0.3048 H   0  0  0  0  0  0  0  0  0  0  0  0
    6.9694   -5.7571   -0.3750 H   0  0  0  0  0  0  0  0  0  0  0  0
    7.0121   -3.3583   -1.0092 H   0  0  0  0  0  0  0  0  0  0  0  0
    4.9591   -2.0336   -0.9677 H   0  0  0  0  0  0  0  0  0  0  0  0
    2.0155   -1.8254   -2.6627 H   0  0  0  0  0  0  0  0  0  0  0  0
    1.8051    0.4896   -3.2476 H   0  0  0  0  0  0  0  0  0  0  0  0
    1.5370    2.4511   -3.7089 H   0  0  0  0  0  0  0  0  0  0  0  0
    1.3114    4.7992   -4.2207 H   0  0  0  0  0  0  0  0  0  0  0  0
    1.6163    6.5016   -2.4766 H   0  0  0  0  0  0  0  0  0  0  0  0
    2.8890    4.1479    2.7347 H   0  0  0  0  0  0  0  0  0  0  0  0
    2.6446    6.4702    2.1154 H   0  0  0  0  0  0  0  0  0  0  0  0
    2.0951    7.1030   -0.1929 H   0  0  0  0  0  0  0  0  0  0  0  0
    3.0068    2.1822    3.2282 H   0  0  0  0  0  0  0  0  0  0  0  0
    3.1980   -0.1601    3.7691 H   0  0  0  0  0  0  0  0  0  0  0  0
    2.9293   -1.8663    2.0598 H   0  0  0  0  0  0  0  0  0  0  0  0
   -0.0836   -1.8944   -0.1680 H   0  0  0  0  0  0  0  0  0  0  0  0
   -3.5516    1.7197   -3.7929 H   0  0  0  0  0  0  0  0  0  0  0  0
   -3.6265    3.9039   -4.8159 H   0  0  0  0  0  0  0  0  0  0  0  0
   -2.9433    5.9036   -3.5637 H   0  0  0  0  0  0  0  0  0  0  0  0
  1  2  4  0
  2  3  4  0
  3  4  4  0
  4  5  4  0
  5  6  4  0
  5  7  4  0
  7  8  4  0
  8  9  4  0
  9 10  4  0
 10 11  4  0
 11 12  4  0
 12 13  4  0
 13 14  4  0
 14 15  4  0
 15 16  4  0
 16 17  1  0
 17 18  4  0
 18 19  4  0
 19 20  4  0
 20 21  4  0
 21 22  4  0
 22 23  4  0
 23 24  4  0
 24 25  4  0
 25 26  4  0
 26 27  4  0
 27 28  4  0
 28 29  4  0
 29 30  4  0
 30 31  4  0
 31 32  4  0
 32 33  4  0
 33 34  4  0
 34 35  4  0
 35 36  1  0
 36 37  4  0
 37 38  4  0
 38 39  4  0
 39 40  4  0
 40 41  4  0
 41 42  4  0
 42 43  4  0
 43 44  4  0
 44 45  4  0
 45 46  4  0
 46 47  4  0
 47 48  4  0
 48 49  4  0
 46 50  4  0
 50 51  4  0
 51 52  4  0
 52 53  4  0
 53 54  4  0
 54 55  4  0
 35 56  4  0
 56 57  4  0
 57 58  4  0
 13 59  4  0
 59 60  4  0
 60 61  4  0
 61 62  4  0
  6  1  4  0
 12  7  4  0
 58 17  4  0
 62  3  4  0
 59  4  4  0
 16 11  4  0
 23 18  4  0
 58 25  4  0
 56 27  4  0
 34 29  4  0
 54 36  4  0
 55 39  4  0
 45 40  4  0
 55 50  4  0
 49 44  4  0
  1 63  1  0
  2 64  1  0
  6 65  1  0
  8 66  1  0
  9 67  1  0
 10 68  1  0
 14 69  1  0
 15 70  1  0
 19 71  1  0
 20 72  1  0
 21 73  1  0
 22 74  1  0
 24 75  1  0
 26 76  1  0
 28 77  1  0
 30 78  1  0
 31 79  1  0
 32 80  1  0
 33 81  1  0
 37 82  1  0
 38 83  1  0
 41 84  1  0
 42 85  1  0
 43 86  1  0
 47 87  1  0
 48 88  1  0
 49 89  1  0
 51 90  1  0
 52 91  1  0
 53 92  1  0
 57 93  1  0
 60 94  1  0
 61 95  1  0
 62 96  1  0
M  END
