
     RDKit          3D

 96110  0  0  0  0  0  0  0  0999 V2000
   -2.1947    5.9408    0.6292 C   0  0  0  0  0  0  0  0  0  0  0  0
   -2.9245    5.5451   -0.4776 C   0  0  0  0  0  0  0  0  0  0  0  0
   -3.1429    4.1891   -0.7271 C   0  0  0  0  0  0  0  0  0  0  0  0
   -2.6191    3.1927    0.1544 C   0  0  0  0  0  0  0  0  0  0  0  0
   -1.8669    3.5864    1.2924 C   0  0  0  0  0  0  0  0  0  0  0  0
   -1.6776    4.9784    1.4936 C   0  0  0  0  0  0  0  0  0  0  0  0
   -1.3382    2.5870    2.1728 C   0  0  0  0  0  0  0  0  0  0  0  0
   -0.5749    2.8953    3.3281 C   0  0  0  0  0  0  0  0  0  0  0  0
   -0.0614    1.9145    4.1736 C   0  0  0  0  0  0  0  0  0  0  0  0
   -0.2938    0.5794    3.8945 C   0  0  0  0  0  0  0  0  0  0  0  0
   -1.0402    0.2154    2.7727 C   0  0  0  0  0  0  0  0  0  0  0  0
   -1.5707    1.2136    1.8981 C   0  0  0  0  0  0  0  0  0  0  0  0
   -2.3183    0.8224    0.7584 C   0  0  0  0  0  0  0  0  0  0  0  0
   -2.4865   -0.5689    0.5423 C   0  0  0  0  0  0  0  0  0  0  0  0
   -1.9550   -1.5520    1.3905 C   0  0  0  0  0  0  0  0  0  0  0  0
   -2.0789   -2.9837    1.0350 C   0  0  0  0  0  0  0  0  0  0  0  0
   -3.2144   -3.7413    1.4525 C   0  0  0  0  0  0  0  0  0  0  0  0
   -4.2472   -3.2238    2.2728 C   0  0  0  0  0  0  0  0  0  0  0  0
   -5.3420   -4.0003    2.6582 C   0  0  0  0  0  0  0  0  0  0  0  0
   -5.4371   -5.3176    2.2336 C   0  0  0  0  0  0  0  0  0  0  0  0
   -4.4387   -5.8549    1.4232 C   0  0  0  0  0  0  0  0  0  0  0  0
   -3.3313   -5.0845    1.0272 C   0  0  0  0  0  0  0  0  0  0  0  0
   -2.3459   -5.6436    0.2007 C   0  0  0  0  0  0  0  0  0  0  0  0
   -1.2242   -4.9124   -0.2140 C   0  0  0  0  0  0  0  0  0  0  0  0
   -0.2598   -5.4874   -1.0622 C   0  0  0  0  0  0  0  0  0  0  0  0
    0.8758   -4.7766   -1.4942 C   0  0  0  0  0  0  0  0  0  0  0  0
    1.8058   -5.3708   -2.3572 C   0  0  0  0  0  0  0  0  0  0  0  0
    2.9461   -4.6876   -2.8017 C   0  0  0  0  0  0  0  0  0  0  0  0
    3.8457   -5.3188   -3.6787 C   0  0  0  0  0  0  0  0  0  0  0  0
    4.9866   -4.6623   -4.1355 C   0  0  0  0  0  0  0  0  0  0  0  0
    5.2430   -3.3637   -3.7210 C   0  0  0  0  0  0  0  0  0  0  0  0
    4.3584   -2.7256   -2.8487 C   0  0  0  0  0  0  0  0  0  0  0  0
    3.1910   -3.3658   -2.3632 C   0  0  0  0  0  0  0  0  0  0  0  0
    2.2617   -2.7516   -1.4677 C   0  0  0  0  0  0  0  0  0  0  0  0
    2.5275   -1.3992   -0.9207 C   0  0  0  0  0  0  0  0  0  0  0  0
    3.4078   -1.2357    0.1466 C   0  0  0  0  0  0  0  0  0  0  0  0
    3.6200    0.0204    0.7177 C   0  0  0  0  0  0  0  0  0  0  0  0
    2.9273    1.1690    0.2279 C   0  0  0  0  0  0  0  0  0  0  0  0
    3.1507    2.4337    0.8341 C   0  0  0  0  0  0  0  0  0  0  0  0
    4.0722    2.4822    1.9124 C   0  0  0  0  0  0  0  0  0  0  0  0
    4.7439    1.3549    2.3796 C   0  0  0  0  0  0  0  0  0  0  0  0
    4.5165    0.1281    1.7826 C   0  0  0  0  0  0  0  0  0  0  0  0
    2.4536    3.5864    0.3470 C   0  0  0  0  0  0  0  0  0  0  0  0
    2.6250    4.8864    0.8911 C   0  0  0  0  0  0  0  0  0  0  0  0
    1.9379    5.9994    0.4116 C   0  0  0  0  0  0  0  0  0  0  0  0
    1.0479    5.8541   -0.6376 C   0  0  0  0  0  0  0  0  0  0  0  0
    0.8398    4.5995   -1.2139 C   0  0  0  0  0  0  0  0  0  0  0  0
    1.5399    3.4499   -0.7311 C   0  0  0  0  0  0  0  0  0  0  0  0
    1.3136    2.1840   -1.3341 C   0  0  0  0  0  0  0  0  0  0  0  0
    0.3752    2.1329   -2.3973 C   0  0  0  0  0  0  0  0  0  0  0  0
   -0.3001    3.2598   -2.8607 C   0  0  0  0  0  0  0  0  0  0  0  0
   -0.0659    4.4888   -2.2704 C   0  0  0  0  0  0  0  0  0  0  0  0
    2.0218    1.0332   -0.8562 C   0  0  0  0  0  0  0  0  0  0  0  0
    1.8630   -0.2655   -1.4114 C   0  0  0  0  0  0  0  0  0  0  0  0
    1.0862   -3.4595   -1.0532 C   0  0  0  0  0  0  0  0  0  0  0  0
    0.0992   -2.9043   -0.2041 C   0  0  0  0  0  0  0  0  0  0  0  0
   -1.0692   -3.5852    0.2161 C   0  0  0  0  0  0  0  0  0  0  0  0
   -1.2437   -1.1428    2.5139 C   0  0  0  0  0  0  0  0  0  0  0  0
   -2.8510    1.8198   -0.1211 C   0  0  0  0  0  0  0  0  0  0  0  0
   -3.6111    1.5104   -1.2796 C   0  0  0  0  0  0  0  0  0  0  0  0
   -4.1161    2.4896   -2.1318 C   0  0  0  0  0  0  0  0  0  0  0  0
   -3.8812    3.8246   -1.8547 C   0  0  0  0  0  0  0  0  0  0  0  0
   -2.0251    6.9964    0.8247 H   0  0  0  0  0  0  0  0  0  0  0  0
   -3.3215    6.3067   -1.1449 H   0  0  0  0  0  0  0  0  0  0  0  0
   -1.1115    5.3520    2.3415 H   0  0  0  0  0  0  0  0  0  0  0  0
   -0.3546    3.9234    3.5986 H   0  0  0  0  0  0  0  0  0  0  0  0
    0.5237    2.1972    5.0444 H   0  0  0  0  0  0  0  0  0  0  0  0
    0.1249   -0.1748    4.5565 H   0  0  0  0  0  0  0  0  0  0  0  0
   -3.0259   -0.9295   -0.3298 H   0  0  0  0  0  0  0  0  0  0  0  0
   -4.2074   -2.1953    2.6276 H   0  0  0  0  0  0  0  0  0  0  0  0
   -6.1160   -3.5714    3.2895 H   0  0  0  0  0  0  0  0  0  0  0  0
   -6.2864   -5.9274    2.5300 H   0  0  0  0  0  0  0  0  0  0  0  0
   -4.5335   -6.8891    1.0987 H   0  0  0  0  0  0  0  0  0  0  0  0
   -2.4563   -6.6756   -0.1300 H   0  0  0  0  0  0  0  0  0  0  0  0
   -0.3999   -6.5135   -1.4003 H   0  0  0  0  0  0  0  0  0  0  0  0
    1.6351   -6.3916   -2.6971 H   0  0  0  0  0  0  0  0  0  0  0  0
    3.6619   -6.3366   -4.0171 H   0  0  0  0  0  0  0  0  0  0  0  0
    5.6702   -5.1645   -4.8145 H   0  0  0  0  0  0  0  0  0  0  0  0
    6.1281   -2.8409   -4.0739 H   0  0  0  0  0  0  0  0  0  0  0  0
    4.5922   -1.7043   -2.5526 H   0  0  0  0  0  0  0  0  0  0  0  0
    3.9218   -2.1106    0.5422 H   0  0  0  0  0  0  0  0  0  0  0  0
    4.2908    3.4149    2.4235 H   0  0  0  0  0  0  0  0  0  0  0  0
    5.4407    1.4396    3.2091 H   0  0  0  0  0  0  0  0  0  0  0  0
    5.0455   -0.7449    2.1584 H   0  0  0  0  0  0  0  0  0  0  0  0
    3.3097    5.0661    1.7146 H   0  0  0  0  0  0  0  0  0  0  0  0
    2.1007    6.9758    0.8599 H   0  0  0  0  0  0  0  0  0  0  0  0
    0.5174    6.7311   -1.0017 H   0  0  0  0  0  0  0  0  0  0  0  0
    0.1357    1.1979   -2.8941 H   0  0  0  0  0  0  0  0  0  0  0  0
   -1.0132    3.1706   -3.6755 H   0  0  0  0  0  0  0  0  0  0  0  0
   -0.6050    5.3588   -2.6378 H   0  0  0  0  0  0  0  0  0  0  0  0
    1.1788   -0.4282   -2.2403 H   0  0  0  0  0  0  0  0  0  0  0  0
    0.2446   -1.8834    0.1457 H   0  0  0  0  0  0  0  0  0  0  0  0
   -0.8168   -1.8978    3.1718 H   0  0  0  0  0  0  0  0  0  0  0  0
   -3.8338    0.4823   -1.5494 H   0  0  0  0  0  0  0  0  0  0  0  0
   -4.6939    2.2060   -3.0075 H   0  0  0  0  0  0  0  0  0  0  0  0
   -4.2815    4.5789   -2.5282 H   0  0  0  0  0  0  0  0  0  0  0  0
  1  2  4  0
  2  3  4  0
  3  4  4  0
  4  5  4  0
  5  6  4  0
  5  7  4  0
  7  8  4  0
  8  9  4  0
  9 10  4  0
 10 11  4  0
 11 12  4  0
 12 13  4  0
 13 14  4  0
 14 15  4  0
 15 16  1  0
 16 17  4  0
 17 18  4  0
 18 19  4  0
 19 20  4  0
 20 21  4  0
 21 22  4  0
 22 23  4  0
 23 24  4  0
 24 25  4  0
 25 26  4  0
 26 27  4  0
 27 28  4  0
 28 29  4  0
 29 30  4  0
 30 31  4  0
 31 32  4  0
 32 33  4  0
 33 34  4  0
 34 35  1  0
 35 36  4  0
 36 37  4  0
 37 38  4  0
 38 39  4  0
 39 40  4  0
 40 41  4  0
 41 42  4  0
 39 43  4  0
 43 44  4  0
 44 45  4  0
 45 46  4  0
 46 47  4  0
 47 48  4  0
 48 49  4  0
 49 50  4  0
 50 51  4  0
 51 52  4  0
 49 53  4  0
 53 54  4  0
 34 55  4  0
 55 56  4  0
 56 57  4  0
 15 58  4  0
 13 59  4  0
 59 60  4  0
 60 61  4  0
 61 62  4  0
  6  1  4  0
 12  7  4  0
 57 16  4  0
 62  3  4  0
 59  4  4  0
 58 11  4  0
 22 17  4  0
 57 24  4  0
 55 26  4  0
 33 28  4  0
 54 35  4  0
 42 37  4  0
 48 43  4  0
 53 38  4  0
 52 47  4  0
  1 63  1  0
  2 64  1  0
  6 65  1  0
  8 66  1  0
  9 67  1  0
 10 68  1  0
 14 69  1  0
 18 70  1  0
 19 71  1  0
 20 72  1  0
 21 73  1  0
 23 74  1  0
 25 75  1  0
 27 76  1  0
 29 77  1  0
 30 78  1  0
 31 79  1  0
 32 80  1  0
 36 81  1  0
 40 82  1  0
 41 83  1  0
 42 84  1  0
 44 85  1  0
 45 86  1  0
 46 87  1  0
 50 88  1  0
 51 89  1  0
 52 90  1  0
 54 91  1  0
 56 92  1  0
 58 93  1  0
 60 94  1  0
 61 95  1  0
 62 96  1  0
M  END
