
     RDKit          3D

102116  0  0  0  0  0  0  0  0999 V2000
   -4.9078    9.1188    2.2215 C   0  0  0  0  0  0  0  0  0  0  0  0
   -4.1218    8.0197    2.5709 C   0  0  0  0  0  0  0  0  0  0  0  0
   -4.1230    6.8565    1.7835 C   0  0  0  0  0  0  0  0  0  0  0  0
   -3.3380    5.7418    2.1210 C   0  0  0  0  0  0  0  0  0  0  0  0
   -3.3417    4.5795    1.3314 C   0  0  0  0  0  0  0  0  0  0  0  0
   -2.5612    3.4626    1.6625 C   0  0  0  0  0  0  0  0  0  0  0  0
   -2.5777    2.3069    0.8614 C   0  0  0  0  0  0  0  0  0  0  0  0
   -1.8092    1.1799    1.1751 C   0  0  0  0  0  0  0  0  0  0  0  0
   -1.8560    0.0470    0.3566 C   0  0  0  0  0  0  0  0  0  0  0  0
   -1.1126   -1.1089    0.6491 C   0  0  0  0  0  0  0  0  0  0  0  0
   -1.1988   -2.2263   -0.1804 C   0  0  0  0  0  0  0  0  0  0  0  0
   -1.9932   -2.1933   -1.3338 C   0  0  0  0  0  0  0  0  0  0  0  0
   -2.0560   -3.3518   -2.2614 C   0  0  0  0  0  0  0  0  0  0  0  0
   -3.2489   -4.1407   -2.3469 C   0  0  0  0  0  0  0  0  0  0  0  0
   -4.3978   -3.9304   -1.5428 C   0  0  0  0  0  0  0  0  0  0  0  0
   -5.5448   -4.7186   -1.6650 C   0  0  0  0  0  0  0  0  0  0  0  0
   -5.5780   -5.7482   -2.5930 C   0  0  0  0  0  0  0  0  0  0  0  0
   -4.4622   -5.9905   -3.3907 C   0  0  0  0  0  0  0  0  0  0  0  0
   -3.3013   -5.2057   -3.2753 C   0  0  0  0  0  0  0  0  0  0  0  0
   -2.1899   -5.4857   -4.0794 C   0  0  0  0  0  0  0  0  0  0  0  0
   -1.0038   -4.7471   -3.9840 C   0  0  0  0  0  0  0  0  0  0  0  0
    0.1035   -5.0763   -4.7859 C   0  0  0  0  0  0  0  0  0  0  0  0
    1.3269   -4.3908   -4.6904 C   0  0  0  0  0  0  0  0  0  0  0  0
    2.4180   -4.7646   -5.4859 C   0  0  0  0  0  0  0  0  0  0  0  0
    3.6607   -4.1259   -5.3837 C   0  0  0  0  0  0  0  0  0  0  0  0
    4.7293   -4.5392   -6.1978 C   0  0  0  0  0  0  0  0  0  0  0  0
    5.9830   -3.9397   -6.1003 C   0  0  0  0  0  0  0  0  0  0  0  0
    6.1857   -2.9210   -5.1813 C   0  0  0  0  0  0  0  0  0  0  0  0
    5.1317   -2.4999   -4.3674 C   0  0  0  0  0  0  0  0  0  0  0  0
    3.8408   -3.0795   -4.4505 C   0  0  0  0  0  0  0  0  0  0  0  0
    2.7317   -2.6773   -3.6427 C   0  0  0  0  0  0  0  0  0  0  0  0
    2.8931   -1.6180   -2.6196 C   0  0  0  0  0  0  0  0  0  0  0  0
    2.8997   -0.2645   -2.9716 C   0  0  0  0  0  0  0  0  0  0  0  0
    2.9912    0.7153   -1.9839 C   0  0  0  0  0  0  0  0  0  0  0  0
    3.0564    0.3518   -0.6279 C   0  0  0  0  0  0  0  0  0  0  0  0
    3.1142    1.3079    0.3913 C   0  0  0  0  0  0  0  0  0  0  0  0
    3.1576    0.9057    1.7312 C   0  0  0  0  0  0  0  0  0  0  0  0
    3.2109    1.8360    2.7843 C   0  0  0  0  0  0  0  0  0  0  0  0
    3.2488    1.4103    4.1198 C   0  0  0  0  0  0  0  0  0  0  0  0
    3.3026    2.3263    5.1838 C   0  0  0  0  0  0  0  0  0  0  0  0
    3.3397    1.8932    6.5194 C   0  0  0  0  0  0  0  0  0  0  0  0
    3.3936    2.8068    7.5849 C   0  0  0  0  0  0  0  0  0  0  0  0
    3.4301    2.3604    8.9067 C   0  0  0  0  0  0  0  0  0  0  0  0
    3.4131    0.9963    9.1803 C   0  0  0  0  0  0  0  0  0  0  0  0
    3.3595    0.0761    8.1324 C   0  0  0  0  0  0  0  0  0  0  0  0
    3.3223    0.5095    6.7969 C   0  0  0  0  0  0  0  0  0  0  0  0
    3.2681   -0.4041    5.7315 C   0  0  0  0  0  0  0  0  0  0  0  0
    3.2314    0.0303    4.3960 C   0  0  0  0  0  0  0  0  0  0  0  0
    3.1777   -0.8827    3.3280 C   0  0  0  0  0  0  0  0  0  0  0  0
    3.1427   -0.4729    2.0029 C   0  0  0  0  0  0  0  0  0  0  0  0
    3.0952   -1.3997    1.0310 N   0  0  0  0  0  0  0  0  0  0  0  0
    3.0536   -1.0036   -0.2536 C   0  0  0  0  0  0  0  0  0  0  0  0
    2.9881   -1.9593   -1.2568 C   0  0  0  0  0  0  0  0  0  0  0  0
    1.4620   -3.3296   -3.7816 C   0  0  0  0  0  0  0  0  0  0  0  0
    0.3103   -2.9752   -3.0341 C   0  0  0  0  0  0  0  0  0  0  0  0
   -0.9219   -3.6742   -3.0798 C   0  0  0  0  0  0  0  0  0  0  0  0
   -2.7170   -1.0179   -1.6113 C   0  0  0  0  0  0  0  0  0  0  0  0
   -2.6807    0.0956   -0.7822 C   0  0  0  0  0  0  0  0  0  0  0  0
   -3.4265    1.1732   -1.0898 N   0  0  0  0  0  0  0  0  0  0  0  0
   -3.3806    2.2538   -0.2912 C   0  0  0  0  0  0  0  0  0  0  0  0
   -4.1486    3.3649   -0.6090 C   0  0  0  0  0  0  0  0  0  0  0  0
   -4.1475    4.5297    0.1785 C   0  0  0  0  0  0  0  0  0  0  0  0
   -4.9328    5.6441   -0.1603 C   0  0  0  0  0  0  0  0  0  0  0  0
   -4.9310    6.8068    0.6273 C   0  0  0  0  0  0  0  0  0  0  0  0
   -5.7161    7.9209    0.2891 C   0  0  0  0  0  0  0  0  0  0  0  0
   -5.7041    9.0694    1.0816 C   0  0  0  0  0  0  0  0  0  0  0  0
   -4.8971   10.0123    2.8399 H   0  0  0  0  0  0  0  0  0  0  0  0
   -3.5062    8.0785    3.4657 H   0  0  0  0  0  0  0  0  0  0  0  0
   -2.7149    5.7806    3.0126 H   0  0  0  0  0  0  0  0  0  0  0  0
   -1.9355    3.4899    2.5525 H   0  0  0  0  0  0  0  0  0  0  0  0
   -1.1731    1.1813    2.0575 H   0  0  0  0  0  0  0  0  0  0  0  0
   -0.4584   -1.1467    1.5185 H   0  0  0  0  0  0  0  0  0  0  0  0
   -0.6198   -3.1159    0.0624 H   0  0  0  0  0  0  0  0  0  0  0  0
   -4.4117   -3.1407   -0.7942 H   0  0  0  0  0  0  0  0  0  0  0  0
   -6.4066   -4.5231   -1.0322 H   0  0  0  0  0  0  0  0  0  0  0  0
   -6.4667   -6.3652   -2.6944 H   0  0  0  0  0  0  0  0  0  0  0  0
   -4.5047   -6.8076   -4.1081 H   0  0  0  0  0  0  0  0  0  0  0  0
   -2.2450   -6.3110   -4.7886 H   0  0  0  0  0  0  0  0  0  0  0  0
    0.0172   -5.9036   -5.4891 H   0  0  0  0  0  0  0  0  0  0  0  0
    2.3002   -5.5823   -6.1962 H   0  0  0  0  0  0  0  0  0  0  0  0
    4.5926   -5.3436   -6.9178 H   0  0  0  0  0  0  0  0  0  0  0  0
    6.7987   -4.2737   -6.7358 H   0  0  0  0  0  0  0  0  0  0  0  0
    7.1620   -2.4524   -5.0902 H   0  0  0  0  0  0  0  0  0  0  0  0
    5.3368   -1.7050   -3.6532 H   0  0  0  0  0  0  0  0  0  0  0  0
    2.8197    0.0300   -4.0164 H   0  0  0  0  0  0  0  0  0  0  0  0
    2.9923    1.7628   -2.2762 H   0  0  0  0  0  0  0  0  0  0  0  0
    3.1169    2.3661    0.1420 H   0  0  0  0  0  0  0  0  0  0  0  0
    3.2223    2.9007    2.5595 H   0  0  0  0  0  0  0  0  0  0  0  0
    3.3159    3.3935    4.9702 H   0  0  0  0  0  0  0  0  0  0  0  0
    3.4075    3.8772    7.3923 H   0  0  0  0  0  0  0  0  0  0  0  0
    3.4717    3.0785    9.7213 H   0  0  0  0  0  0  0  0  0  0  0  0
    3.4414    0.6466   10.2090 H   0  0  0  0  0  0  0  0  0  0  0  0
    3.3469   -0.9861    8.3666 H   0  0  0  0  0  0  0  0  0  0  0  0
    3.2545   -1.4717    5.9454 H   0  0  0  0  0  0  0  0  0  0  0  0
    3.1615   -1.9525    3.5276 H   0  0  0  0  0  0  0  0  0  0  0  0
    2.9777   -3.0092   -0.9673 H   0  0  0  0  0  0  0  0  0  0  0  0
    0.3835   -2.1169   -2.3699 H   0  0  0  0  0  0  0  0  0  0  0  0
   -3.3368   -0.9707   -2.5055 H   0  0  0  0  0  0  0  0  0  0  0  0
   -4.7671    3.3149   -1.5032 H   0  0  0  0  0  0  0  0  0  0  0  0
   -5.5560    5.6055   -1.0523 H   0  0  0  0  0  0  0  0  0  0  0  0
   -6.3452    7.9015   -0.5982 H   0  0  0  0  0  0  0  0  0  0  0  0
   -6.3169    9.9241    0.8076 H   0  0  0  0  0  0  0  0  0  0  0  0
  1  2  4  0
  2  3  4  0
  3  4  4  0
  4  5  4  0
  5  6  4  0
  6  7  4  0
  7  8  4  0
  8  9  4  0
  9 10  4  0
 10 11  4  0
 11 12  4  0
 12 13  1  0
 13 14  4  0
 14 15  4  0
 15 16  4  0
 16 17  4  0
 17 18  4  0
 18 19  4  0
 19 20  4  0
 20 21  4  0
 21 22  4  0
 22 23  4  0
 23 24  4  0
 24 25  4  0
 25 26  4  0
 26 27  4  0
 27 28  4  0
 28 29  4  0
 29 30  4  0
 30 31  4  0
 31 32  1  0
 32 33  4  0
 33 34  4  0
 34 35  4  0
 35 36  4  0
 36 37  4  0
 37 38  4  0
 38 39  4  0
 39 40  4  0
 40 41  4  0
 41 42  4  0
 42 43  4  0
 43 44  4  0
 44 45  4  0
 45 46  4  0
 46 47  4  0
 47 48  4  0
 48 49  4  0
 49 50  4  0
 50 51  4  0
 51 52  4  0
 52 53  4  0
 31 54  4  0
 54 55  4  0
 55 56  4  0
 12 57  4  0
 57 58  4  0
 58 59  4  0
 59 60  4  0
 60 61  4  0
 61 62  4  0
 62 63  4  0
 63 64  4  0
 64 65  4  0
 65 66  4  0
 66  1  4  0
 64  3  4  0
 62  5  4  0
 60  7  4  0
 58  9  4  0
 56 13  4  0
 19 14  4  0
 56 21  4  0
 54 23  4  0
 30 25  4  0
 53 32  4  0
 52 35  4  0
 50 37  4  0
 48 39  4  0
 46 41  4  0
  1 67  1  0
  2 68  1  0
  4 69  1  0
  6 70  1  0
  8 71  1  0
 10 72  1  0
 11 73  1  0
 15 74  1  0
 16 75  1  0
 17 76  1  0
 18 77  1  0
 20 78  1  0
 22 79  1  0
 24 80  1  0
 26 81  1  0
 27 82  1  0
 28 83  1  0
 29 84  1  0
 33 85  1  0
 34 86  1  0
 36 87  1  0
 38 88  1  0
 40 89  1  0
 42 90  1  0
 43 91  1  0
 44 92  1  0
 45 93  1  0
 47 94  1  0
 49 95  1  0
 53 96  1  0
 55 97  1  0
 57 98  1  0
 61 99  1  0
 63100  1  0
 65101  1  0
 66102  1  0
M  END
