
     RDKit          3D

102116  0  0  0  0  0  0  0  0999 V2000
   -5.0936    0.9887   -5.2002 C   0  0  0  0  0  0  0  0  0  0  0  0
   -5.2953    2.3392   -4.9405 C   0  0  0  0  0  0  0  0  0  0  0  0
   -4.9016    2.8767   -3.7113 C   0  0  0  0  0  0  0  0  0  0  0  0
   -4.3073    2.0953   -2.7287 C   0  0  0  0  0  0  0  0  0  0  0  0
   -3.9438    2.6558   -1.5646 N   0  0  0  0  0  0  0  0  0  0  0  0
   -3.3660    1.8987   -0.6154 C   0  0  0  0  0  0  0  0  0  0  0  0
   -2.9970    2.5207    0.5627 C   0  0  0  0  0  0  0  0  0  0  0  0
   -2.4184    1.8320    1.6367 C   0  0  0  0  0  0  0  0  0  0  0  0
   -2.0704    2.5274    2.8073 C   0  0  0  0  0  0  0  0  0  0  0  0
   -1.5012    1.8739    3.9089 C   0  0  0  0  0  0  0  0  0  0  0  0
   -1.1522    2.5704    5.0778 C   0  0  0  0  0  0  0  0  0  0  0  0
   -0.5914    1.9011    6.1662 C   0  0  0  0  0  0  0  0  0  0  0  0
   -0.3722    0.5290    6.0986 C   0  0  0  0  0  0  0  0  0  0  0  0
   -0.7126   -0.1737    4.9417 C   0  0  0  0  0  0  0  0  0  0  0  0
   -1.2788    0.4868    3.8388 C   0  0  0  0  0  0  0  0  0  0  0  0
   -1.6295   -0.2042    2.6658 C   0  0  0  0  0  0  0  0  0  0  0  0
   -2.1977    0.4438    1.5407 C   0  0  0  0  0  0  0  0  0  0  0  0
   -2.5572   -0.2227    0.3286 C   0  0  0  0  0  0  0  0  0  0  0  0
   -2.3684   -1.7001    0.1898 C   0  0  0  0  0  0  0  0  0  0  0  0
   -3.4817   -2.5773    0.4123 C   0  0  0  0  0  0  0  0  0  0  0  0
   -4.7662   -2.1397    0.8246 C   0  0  0  0  0  0  0  0  0  0  0  0
   -5.8255   -3.0285    1.0209 C   0  0  0  0  0  0  0  0  0  0  0  0
   -5.6337   -4.3856    0.8122 C   0  0  0  0  0  0  0  0  0  0  0  0
   -4.3832   -4.8498    0.4111 C   0  0  0  0  0  0  0  0  0  0  0  0
   -3.3093   -3.9643    0.2121 C   0  0  0  0  0  0  0  0  0  0  0  0
   -2.0621   -4.4578   -0.1864 C   0  0  0  0  0  0  0  0  0  0  0  0
   -0.9586   -3.6165   -0.3769 C   0  0  0  0  0  0  0  0  0  0  0  0
    0.2798   -4.1606   -0.7512 C   0  0  0  0  0  0  0  0  0  0  0  0
    1.4270   -3.3668   -0.9023 C   0  0  0  0  0  0  0  0  0  0  0  0
    2.6486   -3.9592   -1.2477 C   0  0  0  0  0  0  0  0  0  0  0  0
    3.8276   -3.2136   -1.3607 C   0  0  0  0  0  0  0  0  0  0  0  0
    5.0333   -3.8525   -1.7002 C   0  0  0  0  0  0  0  0  0  0  0  0
    6.2235   -3.1357   -1.7993 C   0  0  0  0  0  0  0  0  0  0  0  0
    6.2239   -1.7707   -1.5557 C   0  0  0  0  0  0  0  0  0  0  0  0
    5.0322   -1.1258   -1.2183 C   0  0  0  0  0  0  0  0  0  0  0  0
    3.8017   -1.8229   -1.1180 C   0  0  0  0  0  0  0  0  0  0  0  0
    2.5544   -1.2011   -0.7818 C   0  0  0  0  0  0  0  0  0  0  0  0
    2.5170    0.2626   -0.4814 C   0  0  0  0  0  0  0  0  0  0  0  0
    2.6084    0.7120    0.8736 C   0  0  0  0  0  0  0  0  0  0  0  0
    2.7360   -0.1540    1.9895 C   0  0  0  0  0  0  0  0  0  0  0  0
    2.8207    0.3184    3.3099 C   0  0  0  0  0  0  0  0  0  0  0  0
    2.9545   -0.5601    4.3985 C   0  0  0  0  0  0  0  0  0  0  0  0
    3.0320   -0.0727    5.7037 C   0  0  0  0  0  0  0  0  0  0  0  0
    2.9768    1.2980    5.9358 C   0  0  0  0  0  0  0  0  0  0  0  0
    2.8487    2.1818    4.8631 C   0  0  0  0  0  0  0  0  0  0  0  0
    2.7717    1.7043    3.5438 C   0  0  0  0  0  0  0  0  0  0  0  0
    2.6528    2.5742    2.4495 C   0  0  0  0  0  0  0  0  0  0  0  0
    2.5789    2.0961    1.1288 C   0  0  0  0  0  0  0  0  0  0  0  0
    2.4871    2.9964    0.0582 C   0  0  0  0  0  0  0  0  0  0  0  0
    2.4136    2.5886   -1.2620 C   0  0  0  0  0  0  0  0  0  0  0  0
    2.3569    3.5419   -2.2091 N   0  0  0  0  0  0  0  0  0  0  0  0
    2.2957    3.1884   -3.5033 C   0  0  0  0  0  0  0  0  0  0  0  0
    2.2574    4.1720   -4.4838 C   0  0  0  0  0  0  0  0  0  0  0  0
    2.1976    3.8537   -5.8441 C   0  0  0  0  0  0  0  0  0  0  0  0
    2.1753    2.5222   -6.2422 C   0  0  0  0  0  0  0  0  0  0  0  0
    2.2113    1.5176   -5.2778 C   0  0  0  0  0  0  0  0  0  0  0  0
    2.2747    1.8462   -3.9110 C   0  0  0  0  0  0  0  0  0  0  0  0
    2.3287    0.8660   -2.9136 C   0  0  0  0  0  0  0  0  0  0  0  0
    2.4147    1.2126   -1.5481 C   0  0  0  0  0  0  0  0  0  0  0  0
    1.3541   -1.9800   -0.6876 C   0  0  0  0  0  0  0  0  0  0  0  0
    0.0793   -1.4440   -0.3646 C   0  0  0  0  0  0  0  0  0  0  0  0
   -1.0895   -2.2299   -0.1856 C   0  0  0  0  0  0  0  0  0  0  0  0
   -3.1334    0.5203   -0.7553 C   0  0  0  0  0  0  0  0  0  0  0  0
   -3.5144   -0.0428   -1.9929 C   0  0  0  0  0  0  0  0  0  0  0  0
   -4.1075    0.7329   -2.9956 C   0  0  0  0  0  0  0  0  0  0  0  0
   -4.5009    0.1841   -4.2297 C   0  0  0  0  0  0  0  0  0  0  0  0
   -5.3963    0.5631   -6.1534 H   0  0  0  0  0  0  0  0  0  0  0  0
   -5.7578    2.9782   -5.6882 H   0  0  0  0  0  0  0  0  0  0  0  0
   -5.0621    3.9338   -3.5130 H   0  0  0  0  0  0  0  0  0  0  0  0
   -3.1763    3.5923    0.6413 H   0  0  0  0  0  0  0  0  0  0  0  0
   -2.2477    3.6008    2.8637 H   0  0  0  0  0  0  0  0  0  0  0  0
   -1.3171    3.6432    5.1487 H   0  0  0  0  0  0  0  0  0  0  0  0
   -0.3261    2.4514    7.0650 H   0  0  0  0  0  0  0  0  0  0  0  0
    0.0674    0.0044    6.9425 H   0  0  0  0  0  0  0  0  0  0  0  0
   -0.5264   -1.2444    4.9042 H   0  0  0  0  0  0  0  0  0  0  0  0
   -1.4471   -1.2772    2.6332 H   0  0  0  0  0  0  0  0  0  0  0  0
   -4.9598   -1.0835    1.0043 H   0  0  0  0  0  0  0  0  0  0  0  0
   -6.7961   -2.6547    1.3371 H   0  0  0  0  0  0  0  0  0  0  0  0
   -6.4532   -5.0832    0.9629 H   0  0  0  0  0  0  0  0  0  0  0  0
   -4.2526   -5.9191    0.2559 H   0  0  0  0  0  0  0  0  0  0  0  0
   -1.9433   -5.5303   -0.3369 H   0  0  0  0  0  0  0  0  0  0  0  0
    0.3582   -5.2362   -0.9071 H   0  0  0  0  0  0  0  0  0  0  0  0
    2.6859   -5.0340   -1.4215 H   0  0  0  0  0  0  0  0  0  0  0  0
    5.0567   -4.9245   -1.8879 H   0  0  0  0  0  0  0  0  0  0  0  0
    7.1473   -3.6445   -2.0611 H   0  0  0  0  0  0  0  0  0  0  0  0
    7.1479   -1.2023   -1.6248 H   0  0  0  0  0  0  0  0  0  0  0  0
    5.0789   -0.0544   -1.0309 H   0  0  0  0  0  0  0  0  0  0  0  0
    2.7729   -1.2306    1.8322 H   0  0  0  0  0  0  0  0  0  0  0  0
    2.9989   -1.6346    4.2346 H   0  0  0  0  0  0  0  0  0  0  0  0
    3.1363   -0.7627    6.5369 H   0  0  0  0  0  0  0  0  0  0  0  0
    3.0368    1.6812    6.9511 H   0  0  0  0  0  0  0  0  0  0  0  0
    2.8129    3.2503    5.0645 H   0  0  0  0  0  0  0  0  0  0  0  0
    2.6217    3.6479    2.6308 H   0  0  0  0  0  0  0  0  0  0  0  0
    2.4813    4.0679    0.2540 H   0  0  0  0  0  0  0  0  0  0  0  0
    2.2769    5.2156   -4.1790 H   0  0  0  0  0  0  0  0  0  0  0  0
    2.1697    4.6478   -6.5856 H   0  0  0  0  0  0  0  0  0  0  0  0
    2.1297    2.2663   -7.2974 H   0  0  0  0  0  0  0  0  0  0  0  0
    2.1923    0.4770   -5.5934 H   0  0  0  0  0  0  0  0  0  0  0  0
    2.3147   -0.1808   -3.2097 H   0  0  0  0  0  0  0  0  0  0  0  0
   -0.0001   -0.3674   -0.2181 H   0  0  0  0  0  0  0  0  0  0  0  0
   -3.3528   -1.1017   -2.1820 H   0  0  0  0  0  0  0  0  0  0  0  0
   -4.3465   -0.8724   -4.4368 H   0  0  0  0  0  0  0  0  0  0  0  0
  1  2  4  0
  2  3  4  0
  3  4  4  0
  4  5  4  0
  5  6  4  0
  6  7  4  0
  7  8  4  0
  8  9  4  0
  9 10  4  0
 10 11  4  0
 11 12  4  0
 12 13  4  0
 13 14  4  0
 14 15  4  0
 15 16  4  0
 16 17  4  0
 17 18  4  0
 18 19  1  0
 19 20  4  0
 20 21  4  0
 21 22  4  0
 22 23  4  0
 23 24  4  0
 24 25  4  0
 25 26  4  0
 26 27  4  0
 27 28  4  0
 28 29  4  0
 29 30  4  0
 30 31  4  0
 31 32  4  0
 32 33  4  0
 33 34  4  0
 34 35  4  0
 35 36  4  0
 36 37  4  0
 37 38  1  0
 38 39  4  0
 39 40  4  0
 40 41  4  0
 41 42  4  0
 42 43  4  0
 43 44  4  0
 44 45  4  0
 45 46  4  0
 46 47  4  0
 47 48  4  0
 48 49  4  0
 49 50  4  0
 50 51  4  0
 51 52  4  0
 52 53  4  0
 53 54  4  0
 54 55  4  0
 55 56  4  0
 56 57  4  0
 57 58  4  0
 58 59  4  0
 37 60  4  0
 60 61  4  0
 61 62  4  0
 18 63  4  0
 63 64  4  0
 64 65  4  0
 65 66  4  0
 66  1  4  0
 65  4  4  0
 63  6  4  0
 17  8  4  0
 62 19  4  0
 15 10  4  0
 25 20  4  0
 62 27  4  0
 60 29  4  0
 36 31  4  0
 59 38  4  0
 48 39  4  0
 59 50  4  0
 46 41  4  0
 57 52  4  0
  1 67  1  0
  2 68  1  0
  3 69  1  0
  7 70  1  0
  9 71  1  0
 11 72  1  0
 12 73  1  0
 13 74  1  0
 14 75  1  0
 16 76  1  0
 21 77  1  0
 22 78  1  0
 23 79  1  0
 24 80  1  0
 26 81  1  0
 28 82  1  0
 30 83  1  0
 32 84  1  0
 33 85  1  0
 34 86  1  0
 35 87  1  0
 40 88  1  0
 42 89  1  0
 43 90  1  0
 44 91  1  0
 45 92  1  0
 47 93  1  0
 49 94  1  0
 53 95  1  0
 54 96  1  0
 55 97  1  0
 56 98  1  0
 58 99  1  0
 61100  1  0
 64101  1  0
 66102  1  0
M  END
