
     RDKit          3D

102116  0  0  0  0  0  0  0  0999 V2000
    4.7928    8.1604   -2.3503 C   0  0  0  0  0  0  0  0  0  0  0  0
    4.6057    6.7950   -2.5713 C   0  0  0  0  0  0  0  0  0  0  0  0
    4.2896    5.9317   -1.5091 C   0  0  0  0  0  0  0  0  0  0  0  0
    4.0984    4.5553   -1.7147 C   0  0  0  0  0  0  0  0  0  0  0  0
    3.7824    3.6940   -0.6504 C   0  0  0  0  0  0  0  0  0  0  0  0
    3.5907    2.3189   -0.8486 C   0  0  0  0  0  0  0  0  0  0  0  0
    3.2756    1.4707    0.2280 C   0  0  0  0  0  0  0  0  0  0  0  0
    3.0858    0.0950    0.0537 C   0  0  0  0  0  0  0  0  0  0  0  0
    2.7809   -0.7174    1.1506 C   0  0  0  0  0  0  0  0  0  0  0  0
    2.6201   -2.1098    1.0217 C   0  0  0  0  0  0  0  0  0  0  0  0
    2.3427   -2.9078    2.1398 C   0  0  0  0  0  0  0  0  0  0  0  0
    2.2967   -4.3809    2.0264 C   0  0  0  0  0  0  0  0  0  0  0  0
    3.4989   -5.1325    2.2624 C   0  0  0  0  0  0  0  0  0  0  0  0
    4.7513   -4.5507    2.5913 C   0  0  0  0  0  0  0  0  0  0  0  0
    5.8956   -5.3211    2.8137 C   0  0  0  0  0  0  0  0  0  0  0  0
    5.8263   -6.7019    2.7139 C   0  0  0  0  0  0  0  0  0  0  0  0
    4.6139   -7.3064    2.3913 C   0  0  0  0  0  0  0  0  0  0  0  0
    3.4566   -6.5395    2.1651 C   0  0  0  0  0  0  0  0  0  0  0  0
    2.2539   -7.1730    1.8412 C   0  0  0  0  0  0  0  0  0  0  0  0
    1.0773   -6.4514    1.6038 C   0  0  0  0  0  0  0  0  0  0  0  0
   -0.0987   -7.1410    1.2819 C   0  0  0  0  0  0  0  0  0  0  0  0
   -1.3066   -6.4772    1.0309 C   0  0  0  0  0  0  0  0  0  0  0  0
   -2.4480   -7.2244    0.7154 C   0  0  0  0  0  0  0  0  0  0  0  0
   -3.6800   -6.6184    0.4557 C   0  0  0  0  0  0  0  0  0  0  0  0
   -4.8002   -7.4110    0.1462 C   0  0  0  0  0  0  0  0  0  0  0  0
   -6.0399   -6.8336   -0.1164 C   0  0  0  0  0  0  0  0  0  0  0  0
   -6.1742   -5.4548   -0.0718 C   0  0  0  0  0  0  0  0  0  0  0  0
   -5.0671   -4.6591    0.2342 C   0  0  0  0  0  0  0  0  0  0  0  0
   -3.7887   -5.2126    0.5059 C   0  0  0  0  0  0  0  0  0  0  0  0
   -2.6232   -4.4332    0.8232 C   0  0  0  0  0  0  0  0  0  0  0  0
   -2.7411   -2.9595    0.8530 C   0  0  0  0  0  0  0  0  0  0  0  0
   -3.0834   -2.2892    2.0316 C   0  0  0  0  0  0  0  0  0  0  0  0
   -3.3240   -0.9103    2.0182 C   0  0  0  0  0  0  0  0  0  0  0  0
   -3.2365   -0.1636    0.8519 C   0  0  0  0  0  0  0  0  0  0  0  0
   -3.5296    1.1478    0.8844 N   0  0  0  0  0  0  0  0  0  0  0  0
   -3.4481    1.8690   -0.2477 C   0  0  0  0  0  0  0  0  0  0  0  0
   -3.7488    3.2232   -0.2126 C   0  0  0  0  0  0  0  0  0  0  0  0
   -3.6815    4.0383   -1.3564 C   0  0  0  0  0  0  0  0  0  0  0  0
   -3.9892    5.4077   -1.2998 C   0  0  0  0  0  0  0  0  0  0  0  0
   -3.9209    6.2206   -2.4430 C   0  0  0  0  0  0  0  0  0  0  0  0
   -4.2279    7.5900   -2.3872 C   0  0  0  0  0  0  0  0  0  0  0  0
   -4.1550    8.3848   -3.5320 C   0  0  0  0  0  0  0  0  0  0  0  0
   -3.7748    7.8213   -4.7460 C   0  0  0  0  0  0  0  0  0  0  0  0
   -3.4667    6.4620   -4.8175 C   0  0  0  0  0  0  0  0  0  0  0  0
   -3.5352    5.6490   -3.6744 C   0  0  0  0  0  0  0  0  0  0  0  0
   -3.2279    4.2796   -3.7297 C   0  0  0  0  0  0  0  0  0  0  0  0
   -3.2968    3.4687   -2.5845 C   0  0  0  0  0  0  0  0  0  0  0  0
   -2.9915    2.1009   -2.6322 C   0  0  0  0  0  0  0  0  0  0  0  0
   -3.0650    1.3041   -1.4759 C   0  0  0  0  0  0  0  0  0  0  0  0
   -2.7682   -0.0633   -1.5012 C   0  0  0  0  0  0  0  0  0  0  0  0
   -2.8573   -0.8239   -0.3305 C   0  0  0  0  0  0  0  0  0  0  0  0
   -2.6051   -2.2084   -0.3233 C   0  0  0  0  0  0  0  0  0  0  0  0
   -1.3693   -5.0730    1.0948 C   0  0  0  0  0  0  0  0  0  0  0  0
   -0.1644   -4.3913    1.4278 C   0  0  0  0  0  0  0  0  0  0  0  0
    1.0729   -5.0471    1.6882 C   0  0  0  0  0  0  0  0  0  0  0  0
    2.1860   -2.2805    3.3806 C   0  0  0  0  0  0  0  0  0  0  0  0
    2.3443   -0.8954    3.5001 C   0  0  0  0  0  0  0  0  0  0  0  0
    2.6577   -0.0995    2.4081 C   0  0  0  0  0  0  0  0  0  0  0  0
    2.8432    1.2196    2.5863 N   0  0  0  0  0  0  0  0  0  0  0  0
    3.1465    1.9908    1.5270 C   0  0  0  0  0  0  0  0  0  0  0  0
    3.3389    3.3532    1.7111 C   0  0  0  0  0  0  0  0  0  0  0  0
    3.6547    4.2192    0.6490 C   0  0  0  0  0  0  0  0  0  0  0  0
    3.8454    5.5958    0.8559 C   0  0  0  0  0  0  0  0  0  0  0  0
    4.1614    6.4590   -0.2062 C   0  0  0  0  0  0  0  0  0  0  0  0
    4.3526    7.8352   -0.0001 C   0  0  0  0  0  0  0  0  0  0  0  0
    4.6664    8.6797   -1.0658 C   0  0  0  0  0  0  0  0  0  0  0  0
    5.0369    8.8170   -3.1814 H   0  0  0  0  0  0  0  0  0  0  0  0
    4.7088    6.4083   -3.5827 H   0  0  0  0  0  0  0  0  0  0  0  0
    4.1976    4.1493   -2.7198 H   0  0  0  0  0  0  0  0  0  0  0  0
    3.6888    1.9022   -1.8492 H   0  0  0  0  0  0  0  0  0  0  0  0
    3.1847   -0.3458   -0.9355 H   0  0  0  0  0  0  0  0  0  0  0  0
    2.7398   -2.5831    0.0486 H   0  0  0  0  0  0  0  0  0  0  0  0
    4.8541   -3.4707    2.6794 H   0  0  0  0  0  0  0  0  0  0  0  0
    6.8355   -4.8359    3.0639 H   0  0  0  0  0  0  0  0  0  0  0  0
    6.7111   -7.3084    2.8857 H   0  0  0  0  0  0  0  0  0  0  0  0
    4.5787   -8.3916    2.3169 H   0  0  0  0  0  0  0  0  0  0  0  0
    2.2332   -8.2599    1.7704 H   0  0  0  0  0  0  0  0  0  0  0  0
   -0.0729   -8.2290    1.2249 H   0  0  0  0  0  0  0  0  0  0  0  0
   -2.3766   -8.3109    0.6718 H   0  0  0  0  0  0  0  0  0  0  0  0
   -4.7140   -8.4952    0.1078 H   0  0  0  0  0  0  0  0  0  0  0  0
   -6.8957   -7.4600   -0.3532 H   0  0  0  0  0  0  0  0  0  0  0  0
   -7.1364   -4.9911   -0.2728 H   0  0  0  0  0  0  0  0  0  0  0  0
   -5.2198   -3.5815    0.2605 H   0  0  0  0  0  0  0  0  0  0  0  0
   -3.1988   -2.8406    2.9627 H   0  0  0  0  0  0  0  0  0  0  0  0
   -3.6103   -0.4100    2.9406 H   0  0  0  0  0  0  0  0  0  0  0  0
   -4.0452    3.6527    0.7424 H   0  0  0  0  0  0  0  0  0  0  0  0
   -4.2866    5.8484   -0.3496 H   0  0  0  0  0  0  0  0  0  0  0  0
   -4.5270    8.0490   -1.4475 H   0  0  0  0  0  0  0  0  0  0  0  0
   -4.3952    9.4431   -3.4739 H   0  0  0  0  0  0  0  0  0  0  0  0
   -3.7174    8.4388   -5.6385 H   0  0  0  0  0  0  0  0  0  0  0  0
   -3.1714    6.0405   -5.7757 H   0  0  0  0  0  0  0  0  0  0  0  0
   -2.9303    3.8394   -4.6797 H   0  0  0  0  0  0  0  0  0  0  0  0
   -2.6943    1.6495   -3.5769 H   0  0  0  0  0  0  0  0  0  0  0  0
   -2.4732   -0.5375   -2.4340 H   0  0  0  0  0  0  0  0  0  0  0  0
   -2.3407   -2.7174   -1.2490 H   0  0  0  0  0  0  0  0  0  0  0  0
   -0.1915   -3.3037    1.4891 H   0  0  0  0  0  0  0  0  0  0  0  0
    1.9682   -2.8698    4.2693 H   0  0  0  0  0  0  0  0  0  0  0  0
    2.2366   -0.4273    4.4757 H   0  0  0  0  0  0  0  0  0  0  0  0
    3.2369    3.7475    2.7203 H   0  0  0  0  0  0  0  0  0  0  0  0
    3.7464    6.0024    1.8611 H   0  0  0  0  0  0  0  0  0  0  0  0
    4.2579    8.2608    0.9966 H   0  0  0  0  0  0  0  0  0  0  0  0
    4.8115    9.7425   -0.8910 H   0  0  0  0  0  0  0  0  0  0  0  0
  1  2  4  0
  2  3  4  0
  3  4  4  0
  4  5  4  0
  5  6  4  0
  6  7  4  0
  7  8  4  0
  8  9  4  0
  9 10  4  0
 10 11  4  0
 11 12  1  0
 12 13  4  0
 13 14  4  0
 14 15  4  0
 15 16  4  0
 16 17  4  0
 17 18  4  0
 18 19  4  0
 19 20  4  0
 20 21  4  0
 21 22  4  0
 22 23  4  0
 23 24  4  0
 24 25  4  0
 25 26  4  0
 26 27  4  0
 27 28  4  0
 28 29  4  0
 29 30  4  0
 30 31  1  0
 31 32  4  0
 32 33  4  0
 33 34  4  0
 34 35  4  0
 35 36  4  0
 36 37  4  0
 37 38  4  0
 38 39  4  0
 39 40  4  0
 40 41  4  0
 41 42  4  0
 42 43  4  0
 43 44  4  0
 44 45  4  0
 45 46  4  0
 46 47  4  0
 47 48  4  0
 48 49  4  0
 49 50  4  0
 50 51  4  0
 51 52  4  0
 30 53  4  0
 53 54  4  0
 54 55  4  0
 11 56  4  0
 56 57  4  0
 57 58  4  0
 58 59  4  0
 59 60  4  0
 60 61  4  0
 61 62  4  0
 62 63  4  0
 63 64  4  0
 64 65  4  0
 65 66  4  0
 66  1  4  0
 64  3  4  0
 62  5  4  0
 60  7  4  0
 58  9  4  0
 55 12  4  0
 18 13  4  0
 55 20  4  0
 53 22  4  0
 29 24  4  0
 52 31  4  0
 51 34  4  0
 49 36  4  0
 47 38  4  0
 45 40  4  0
  1 67  1  0
  2 68  1  0
  4 69  1  0
  6 70  1  0
  8 71  1  0
 10 72  1  0
 14 73  1  0
 15 74  1  0
 16 75  1  0
 17 76  1  0
 19 77  1  0
 21 78  1  0
 23 79  1  0
 25 80  1  0
 26 81  1  0
 27 82  1  0
 28 83  1  0
 32 84  1  0
 33 85  1  0
 37 86  1  0
 39 87  1  0
 41 88  1  0
 42 89  1  0
 43 90  1  0
 44 91  1  0
 46 92  1  0
 48 93  1  0
 50 94  1  0
 52 95  1  0
 54 96  1  0
 56 97  1  0
 57 98  1  0
 61 99  1  0
 63100  1  0
 65101  1  0
 66102  1  0
M  END
