
     RDKit          3D

102116  0  0  0  0  0  0  0  0999 V2000
    4.9044    8.7356   -2.2721 C   0  0  0  0  0  0  0  0  0  0  0  0
    5.2804    8.6606   -0.9361 C   0  0  0  0  0  0  0  0  0  0  0  0
    5.1672    7.4483   -0.2485 C   0  0  0  0  0  0  0  0  0  0  0  0
    4.6853    6.3004   -0.8637 C   0  0  0  0  0  0  0  0  0  0  0  0
    4.5958    5.1600   -0.1568 N   0  0  0  0  0  0  0  0  0  0  0  0
    4.1297    4.0492   -0.7552 C   0  0  0  0  0  0  0  0  0  0  0  0
    4.0375    2.8716   -0.0261 C   0  0  0  0  0  0  0  0  0  0  0  0
    3.5678    1.6711   -0.5893 C   0  0  0  0  0  0  0  0  0  0  0  0
    3.4953    0.4864    0.1628 C   0  0  0  0  0  0  0  0  0  0  0  0
    3.0573   -0.7189   -0.4097 C   0  0  0  0  0  0  0  0  0  0  0  0
    3.0231   -1.9116    0.3329 C   0  0  0  0  0  0  0  0  0  0  0  0
    2.6377   -3.1278   -0.2542 C   0  0  0  0  0  0  0  0  0  0  0  0
    2.6894   -4.3908    0.5169 C   0  0  0  0  0  0  0  0  0  0  0  0
    3.9522   -5.0450    0.7132 C   0  0  0  0  0  0  0  0  0  0  0  0
    5.1872   -4.5597    0.2104 C   0  0  0  0  0  0  0  0  0  0  0  0
    6.3947   -5.2273    0.4303 C   0  0  0  0  0  0  0  0  0  0  0  0
    6.4068   -6.4070    1.1582 C   0  0  0  0  0  0  0  0  0  0  0  0
    5.2116   -6.9171    1.6588 C   0  0  0  0  0  0  0  0  0  0  0  0
    3.9906   -6.2538    1.4418 C   0  0  0  0  0  0  0  0  0  0  0  0
    2.8043   -6.7987    1.9427 C   0  0  0  0  0  0  0  0  0  0  0  0
    1.5643   -6.1790    1.7457 C   0  0  0  0  0  0  0  0  0  0  0  0
    0.4004   -6.7779    2.2487 C   0  0  0  0  0  0  0  0  0  0  0  0
   -0.8685   -6.2094    2.0669 C   0  0  0  0  0  0  0  0  0  0  0  0
   -1.9990   -6.8620    2.5728 C   0  0  0  0  0  0  0  0  0  0  0  0
   -3.2877   -6.3473    2.4021 C   0  0  0  0  0  0  0  0  0  0  0  0
   -4.3939   -7.0456    2.9183 C   0  0  0  0  0  0  0  0  0  0  0  0
   -5.6904   -6.5650    2.7519 C   0  0  0  0  0  0  0  0  0  0  0  0
   -5.8967   -5.3804    2.0622 C   0  0  0  0  0  0  0  0  0  0  0  0
   -4.8043   -4.6783    1.5468 C   0  0  0  0  0  0  0  0  0  0  0  0
   -3.4693   -5.1322    1.7064 C   0  0  0  0  0  0  0  0  0  0  0  0
   -2.3168   -4.4403    1.2015 C   0  0  0  0  0  0  0  0  0  0  0  0
   -2.4964   -3.1511    0.4945 C   0  0  0  0  0  0  0  0  0  0  0  0
   -2.7653   -1.9750    1.2148 C   0  0  0  0  0  0  0  0  0  0  0  0
   -3.0194   -0.7572    0.5619 C   0  0  0  0  0  0  0  0  0  0  0  0
   -3.3424    0.4042    1.2825 C   0  0  0  0  0  0  0  0  0  0  0  0
   -3.6330    1.6138    0.6299 C   0  0  0  0  0  0  0  0  0  0  0  0
   -3.9900    2.7694    1.3483 C   0  0  0  0  0  0  0  0  0  0  0  0
   -4.2966    3.9693    0.7218 C   0  0  0  0  0  0  0  0  0  0  0  0
   -4.6450    5.0319    1.4692 N   0  0  0  0  0  0  0  0  0  0  0  0
   -4.9426    6.1940    0.8614 C   0  0  0  0  0  0  0  0  0  0  0  0
   -5.3062    7.2923    1.6295 C   0  0  0  0  0  0  0  0  0  0  0  0
   -5.6240    8.5243    1.0496 C   0  0  0  0  0  0  0  0  0  0  0  0
   -5.5800    8.6703   -0.3320 C   0  0  0  0  0  0  0  0  0  0  0  0
   -5.2193    7.5844   -1.1266 C   0  0  0  0  0  0  0  0  0  0  0  0
   -4.9009    6.3475   -0.5371 C   0  0  0  0  0  0  0  0  0  0  0  0
   -4.5369    5.2357   -1.3043 C   0  0  0  0  0  0  0  0  0  0  0  0
   -4.2298    4.0212   -0.6811 C   0  0  0  0  0  0  0  0  0  0  0  0
   -3.8685    2.8792   -1.4187 C   0  0  0  0  0  0  0  0  0  0  0  0
   -3.5757    1.6682   -0.7749 C   0  0  0  0  0  0  0  0  0  0  0  0
   -3.2380    0.5106   -1.4971 C   0  0  0  0  0  0  0  0  0  0  0  0
   -2.9702   -0.7049   -0.8460 C   0  0  0  0  0  0  0  0  0  0  0  0
   -2.6699   -1.8719   -1.5654 C   0  0  0  0  0  0  0  0  0  0  0  0
   -2.4453   -3.0819   -0.9035 C   0  0  0  0  0  0  0  0  0  0  0  0
   -1.0042   -4.9907    1.3783 C   0  0  0  0  0  0  0  0  0  0  0  0
    0.1918   -4.3898    0.8989 C   0  0  0  0  0  0  0  0  0  0  0  0
    1.4846   -4.9641    1.0425 C   0  0  0  0  0  0  0  0  0  0  0  0
    2.2439   -3.1273   -1.5988 C   0  0  0  0  0  0  0  0  0  0  0  0
    2.2474   -1.9445   -2.3419 C   0  0  0  0  0  0  0  0  0  0  0  0
    2.6648   -0.7362   -1.7640 C   0  0  0  0  0  0  0  0  0  0  0  0
    2.7160    0.4531   -2.5095 C   0  0  0  0  0  0  0  0  0  0  0  0
    3.1711    1.6545   -1.9391 C   0  0  0  0  0  0  0  0  0  0  0  0
    3.2508    2.8405   -2.6836 C   0  0  0  0  0  0  0  0  0  0  0  0
    3.7275    4.0292   -2.1016 C   0  0  0  0  0  0  0  0  0  0  0  0
    3.8222    5.2211   -2.8289 C   0  0  0  0  0  0  0  0  0  0  0  0
    4.3062    6.3823   -2.2166 C   0  0  0  0  0  0  0  0  0  0  0  0
    4.4176    7.5989   -2.9139 C   0  0  0  0  0  0  0  0  0  0  0  0
    4.9898    9.6748   -2.8124 H   0  0  0  0  0  0  0  0  0  0  0  0
    5.6617    9.5400   -0.4237 H   0  0  0  0  0  0  0  0  0  0  0  0
    5.4630    7.3969    0.7967 H   0  0  0  0  0  0  0  0  0  0  0  0
    4.3482    2.8939    1.0166 H   0  0  0  0  0  0  0  0  0  0  0  0
    3.8002    0.4993    1.2082 H   0  0  0  0  0  0  0  0  0  0  0  0
    3.3281   -1.9056    1.3786 H   0  0  0  0  0  0  0  0  0  0  0  0
    5.2235   -3.6406   -0.3719 H   0  0  0  0  0  0  0  0  0  0  0  0
    7.3197   -4.8215    0.0296 H   0  0  0  0  0  0  0  0  0  0  0  0
    7.3413   -6.9327    1.3335 H   0  0  0  0  0  0  0  0  0  0  0  0
    5.2401   -7.8476    2.2224 H   0  0  0  0  0  0  0  0  0  0  0  0
    2.8465   -7.7364    2.4955 H   0  0  0  0  0  0  0  0  0  0  0  0
    0.4837   -7.7208    2.7884 H   0  0  0  0  0  0  0  0  0  0  0  0
   -1.8732   -7.8029    3.1073 H   0  0  0  0  0  0  0  0  0  0  0  0
   -4.2523   -7.9806    3.4569 H   0  0  0  0  0  0  0  0  0  0  0  0
   -6.5342   -7.1178    3.1556 H   0  0  0  0  0  0  0  0  0  0  0  0
   -6.9038   -4.9978    1.9191 H   0  0  0  0  0  0  0  0  0  0  0  0
   -5.0138   -3.7591    1.0031 H   0  0  0  0  0  0  0  0  0  0  0  0
   -2.8047   -2.0222    2.3024 H   0  0  0  0  0  0  0  0  0  0  0  0
   -3.3828    0.3622    2.3699 H   0  0  0  0  0  0  0  0  0  0  0  0
   -4.0391    2.7372    2.4350 H   0  0  0  0  0  0  0  0  0  0  0  0
   -5.3436    7.1853    2.7111 H   0  0  0  0  0  0  0  0  0  0  0  0
   -5.9045    9.3635    1.6808 H   0  0  0  0  0  0  0  0  0  0  0  0
   -5.8258    9.6253   -0.7892 H   0  0  0  0  0  0  0  0  0  0  0  0
   -5.1877    7.7057   -2.2068 H   0  0  0  0  0  0  0  0  0  0  0  0
   -4.4954    5.3163   -2.3878 H   0  0  0  0  0  0  0  0  0  0  0  0
   -3.8219    2.9342   -2.5046 H   0  0  0  0  0  0  0  0  0  0  0  0
   -3.1974    0.5519   -2.5840 H   0  0  0  0  0  0  0  0  0  0  0  0
   -2.6254   -1.8536   -2.6519 H   0  0  0  0  0  0  0  0  0  0  0  0
   -2.2370   -3.9773   -1.4858 H   0  0  0  0  0  0  0  0  0  0  0  0
    0.1122   -3.4327    0.3843 H   0  0  0  0  0  0  0  0  0  0  0  0
    1.9404   -4.0566   -2.0770 H   0  0  0  0  0  0  0  0  0  0  0  0
    1.9394   -1.9804   -3.3843 H   0  0  0  0  0  0  0  0  0  0  0  0
    2.4118    0.4390   -3.5545 H   0  0  0  0  0  0  0  0  0  0  0  0
    2.9454    2.8401   -3.7282 H   0  0  0  0  0  0  0  0  0  0  0  0
    3.5207    5.2459   -3.8732 H   0  0  0  0  0  0  0  0  0  0  0  0
    4.1254    7.6654   -3.9593 H   0  0  0  0  0  0  0  0  0  0  0  0
  1  2  4  0
  2  3  4  0
  3  4  4  0
  4  5  4  0
  5  6  4  0
  6  7  4  0
  7  8  4  0
  8  9  4  0
  9 10  4  0
 10 11  4  0
 11 12  4  0
 12 13  1  0
 13 14  4  0
 14 15  4  0
 15 16  4  0
 16 17  4  0
 17 18  4  0
 18 19  4  0
 19 20  4  0
 20 21  4  0
 21 22  4  0
 22 23  4  0
 23 24  4  0
 24 25  4  0
 25 26  4  0
 26 27  4  0
 27 28  4  0
 28 29  4  0
 29 30  4  0
 30 31  4  0
 31 32  1  0
 32 33  4  0
 33 34  4  0
 34 35  4  0
 35 36  4  0
 36 37  4  0
 37 38  4  0
 38 39  4  0
 39 40  4  0
 40 41  4  0
 41 42  4  0
 42 43  4  0
 43 44  4  0
 44 45  4  0
 45 46  4  0
 46 47  4  0
 47 48  4  0
 48 49  4  0
 49 50  4  0
 50 51  4  0
 51 52  4  0
 52 53  4  0
 31 54  4  0
 54 55  4  0
 55 56  4  0
 12 57  4  0
 57 58  4  0
 58 59  4  0
 59 60  4  0
 60 61  4  0
 61 62  4  0
 62 63  4  0
 63 64  4  0
 64 65  4  0
 65 66  4  0
 66  1  4  0
 65  4  4  0
 63  6  4  0
 61  8  4  0
 59 10  4  0
 56 13  4  0
 19 14  4  0
 56 21  4  0
 54 23  4  0
 30 25  4  0
 53 32  4  0
 51 34  4  0
 49 36  4  0
 47 38  4  0
 45 40  4  0
  1 67  1  0
  2 68  1  0
  3 69  1  0
  7 70  1  0
  9 71  1  0
 11 72  1  0
 15 73  1  0
 16 74  1  0
 17 75  1  0
 18 76  1  0
 20 77  1  0
 22 78  1  0
 24 79  1  0
 26 80  1  0
 27 81  1  0
 28 82  1  0
 29 83  1  0
 33 84  1  0
 35 85  1  0
 37 86  1  0
 41 87  1  0
 42 88  1  0
 43 89  1  0
 44 90  1  0
 46 91  1  0
 48 92  1  0
 50 93  1  0
 52 94  1  0
 53 95  1  0
 55 96  1  0
 57 97  1  0
 58 98  1  0
 60 99  1  0
 62100  1  0
 64101  1  0
 66102  1  0
M  END
