
     RDKit          3D

102116  0  0  0  0  0  0  0  0999 V2000
   -3.6068    0.0404   10.3907 C   0  0  0  0  0  0  0  0  0  0  0  0
   -3.9034   -1.2657   10.0192 C   0  0  0  0  0  0  0  0  0  0  0  0
   -3.8042   -1.6465    8.6773 C   0  0  0  0  0  0  0  0  0  0  0  0
   -3.4142   -0.7520    7.6891 C   0  0  0  0  0  0  0  0  0  0  0  0
   -3.3356   -1.1700    6.4135 N   0  0  0  0  0  0  0  0  0  0  0  0
   -2.9582   -0.3020    5.4589 C   0  0  0  0  0  0  0  0  0  0  0  0
   -2.8776   -0.7336    4.1425 C   0  0  0  0  0  0  0  0  0  0  0  0
   -2.4882    0.1186    3.0937 C   0  0  0  0  0  0  0  0  0  0  0  0
   -2.4097   -0.3367    1.7667 C   0  0  0  0  0  0  0  0  0  0  0  0
   -2.0157    0.5048    0.7001 C   0  0  0  0  0  0  0  0  0  0  0  0
   -1.6912    1.8483    1.0062 C   0  0  0  0  0  0  0  0  0  0  0  0
   -1.7742    2.3039    2.3327 C   0  0  0  0  0  0  0  0  0  0  0  0
   -2.1677    1.4553    3.3789 C   0  0  0  0  0  0  0  0  0  0  0  0
   -2.2465    1.9052    4.7049 C   0  0  0  0  0  0  0  0  0  0  0  0
   -2.6382    1.0372    5.7398 C   0  0  0  0  0  0  0  0  0  0  0  0
   -2.7230    1.4639    7.0700 C   0  0  0  0  0  0  0  0  0  0  0  0
   -3.1152    0.5691    8.0714 C   0  0  0  0  0  0  0  0  0  0  0  0
   -3.2129    0.9586    9.4197 C   0  0  0  0  0  0  0  0  0  0  0  0
   -1.2794    2.7199   -0.0142 C   0  0  0  0  0  0  0  0  0  0  0  0
   -1.1868    2.2867   -1.3330 C   0  0  0  0  0  0  0  0  0  0  0  0
   -1.5082    0.9721   -1.6485 C   0  0  0  0  0  0  0  0  0  0  0  0
   -1.9205    0.0654   -0.6515 C   0  0  0  0  0  0  0  0  0  0  0  0
   -2.1951   -1.3385   -1.0604 C   0  0  0  0  0  0  0  0  0  0  0  0
   -3.5197   -1.7401   -1.4191 C   0  0  0  0  0  0  0  0  0  0  0  0
   -4.6472   -0.8842   -1.3550 C   0  0  0  0  0  0  0  0  0  0  0  0
   -5.9264   -1.3188   -1.7080 C   0  0  0  0  0  0  0  0  0  0  0  0
   -6.1166   -2.6235   -2.1392 C   0  0  0  0  0  0  0  0  0  0  0  0
   -5.0274   -3.4888   -2.2190 C   0  0  0  0  0  0  0  0  0  0  0  0
   -3.7344   -3.0632   -1.8667 C   0  0  0  0  0  0  0  0  0  0  0  0
   -2.6521   -3.9474   -1.9694 C   0  0  0  0  0  0  0  0  0  0  0  0
   -1.3488   -3.5662   -1.6225 C   0  0  0  0  0  0  0  0  0  0  0  0
   -0.2778   -4.4649   -1.7657 C   0  0  0  0  0  0  0  0  0  0  0  0
    1.0435   -4.1111   -1.4404 C   0  0  0  0  0  0  0  0  0  0  0  0
    2.0891   -5.0220   -1.6375 C   0  0  0  0  0  0  0  0  0  0  0  0
    3.4197   -4.6952   -1.3475 C   0  0  0  0  0  0  0  0  0  0  0  0
    4.4392   -5.6341   -1.5832 C   0  0  0  0  0  0  0  0  0  0  0  0
    5.7720   -5.3336   -1.3111 C   0  0  0  0  0  0  0  0  0  0  0  0
    6.1035   -4.0877   -0.8007 C   0  0  0  0  0  0  0  0  0  0  0  0
    5.0994   -3.1468   -0.5618 C   0  0  0  0  0  0  0  0  0  0  0  0
    3.7326   -3.4219   -0.8200 C   0  0  0  0  0  0  0  0  0  0  0  0
    2.6713   -2.4906   -0.5816 C   0  0  0  0  0  0  0  0  0  0  0  0
    2.9650   -1.1733    0.0519 C   0  0  0  0  0  0  0  0  0  0  0  0
    3.1931   -1.1536    1.4429 C   0  0  0  0  0  0  0  0  0  0  0  0
    3.4500    0.0365    2.1128 C   0  0  0  0  0  0  0  0  0  0  0  0
    3.4644    1.2343    1.4065 C   0  0  0  0  0  0  0  0  0  0  0  0
    3.2232    1.2610    0.0251 C   0  0  0  0  0  0  0  0  0  0  0  0
    3.2040    2.4880   -0.6580 C   0  0  0  0  0  0  0  0  0  0  0  0
    2.9318    2.5596   -2.0318 C   0  0  0  0  0  0  0  0  0  0  0  0
    2.8782    3.7865   -2.7084 C   0  0  0  0  0  0  0  0  0  0  0  0
    2.5820    3.8401   -4.0814 C   0  0  0  0  0  0  0  0  0  0  0  0
    2.5105    5.0546   -4.7730 C   0  0  0  0  0  0  0  0  0  0  0  0
    2.2049    5.0692   -6.1378 C   0  0  0  0  0  0  0  0  0  0  0  0
    2.1190    6.2689   -6.8672 C   0  0  0  0  0  0  0  0  0  0  0  0
    1.8109    6.2455   -8.2256 C   0  0  0  0  0  0  0  0  0  0  0  0
    1.5898    5.0276   -8.8578 C   0  0  0  0  0  0  0  0  0  0  0  0
    1.6772    3.8386   -8.1272 C   0  0  0  0  0  0  0  0  0  0  0  0
    1.9809    3.8331   -6.7722 C   0  0  0  0  0  0  0  0  0  0  0  0
    2.0507    2.6621   -6.1156 N   0  0  0  0  0  0  0  0  0  0  0  0
    2.3431    2.6580   -4.8028 C   0  0  0  0  0  0  0  0  0  0  0  0
    2.4117    1.4496   -4.1228 C   0  0  0  0  0  0  0  0  0  0  0  0
    2.6985    1.3749   -2.7475 C   0  0  0  0  0  0  0  0  0  0  0  0
    2.7446    0.1446   -2.0686 C   0  0  0  0  0  0  0  0  0  0  0  0
    2.9828    0.0544   -0.6761 C   0  0  0  0  0  0  0  0  0  0  0  0
    1.3199   -2.8369   -0.9161 C   0  0  0  0  0  0  0  0  0  0  0  0
    0.2196   -1.9571   -0.7635 C   0  0  0  0  0  0  0  0  0  0  0  0
   -1.1102   -2.2701   -1.1392 C   0  0  0  0  0  0  0  0  0  0  0  0
   -3.6815    0.3433   11.4318 H   0  0  0  0  0  0  0  0  0  0  0  0
   -4.2117   -1.9920   10.7666 H   0  0  0  0  0  0  0  0  0  0  0  0
   -4.0376   -2.6700    8.3930 H   0  0  0  0  0  0  0  0  0  0  0  0
   -3.1259   -1.7722    3.9316 H   0  0  0  0  0  0  0  0  0  0  0  0
   -2.6604   -1.3770    1.5616 H   0  0  0  0  0  0  0  0  0  0  0  0
   -1.5201    3.3386    2.5563 H   0  0  0  0  0  0  0  0  0  0  0  0
   -1.9991    2.9393    4.9361 H   0  0  0  0  0  0  0  0  0  0  0  0
   -2.4838    2.4929    7.3270 H   0  0  0  0  0  0  0  0  0  0  0  0
   -2.9825    1.9786    9.7182 H   0  0  0  0  0  0  0  0  0  0  0  0
   -1.0187    3.7511    0.2137 H   0  0  0  0  0  0  0  0  0  0  0  0
   -0.8556    2.9673   -2.1130 H   0  0  0  0  0  0  0  0  0  0  0  0
   -1.4202    0.6401   -2.6820 H   0  0  0  0  0  0  0  0  0  0  0  0
   -4.5372    0.1457   -1.0196 H   0  0  0  0  0  0  0  0  0  0  0  0
   -6.7687   -0.6351   -1.6426 H   0  0  0  0  0  0  0  0  0  0  0  0
   -7.1092   -2.9684   -2.4156 H   0  0  0  0  0  0  0  0  0  0  0  0
   -5.1974   -4.5073   -2.5625 H   0  0  0  0  0  0  0  0  0  0  0  0
   -2.8283   -4.9588   -2.3331 H   0  0  0  0  0  0  0  0  0  0  0  0
   -0.4758   -5.4619   -2.1573 H   0  0  0  0  0  0  0  0  0  0  0  0
    1.8628   -6.0089   -2.0398 H   0  0  0  0  0  0  0  0  0  0  0  0
    4.2005   -6.6165   -1.9863 H   0  0  0  0  0  0  0  0  0  0  0  0
    6.5474   -6.0706   -1.5007 H   0  0  0  0  0  0  0  0  0  0  0  0
    7.1405   -3.8409   -0.5887 H   0  0  0  0  0  0  0  0  0  0  0  0
    5.4025   -2.1766   -0.1718 H   0  0  0  0  0  0  0  0  0  0  0  0
    3.1626   -2.0830    2.0096 H   0  0  0  0  0  0  0  0  0  0  0  0
    3.6248    0.0318    3.1852 H   0  0  0  0  0  0  0  0  0  0  0  0
    3.6520    2.1572    1.9516 H   0  0  0  0  0  0  0  0  0  0  0  0
    3.3868    3.4078   -0.1047 H   0  0  0  0  0  0  0  0  0  0  0  0
    3.0617    4.7095   -2.1622 H   0  0  0  0  0  0  0  0  0  0  0  0
    2.6913    5.9901   -4.2491 H   0  0  0  0  0  0  0  0  0  0  0  0
    2.2918    7.2257   -6.3800 H   0  0  0  0  0  0  0  0  0  0  0  0
    1.7442    7.1734   -8.7876 H   0  0  0  0  0  0  0  0  0  0  0  0
    1.3497    4.9955   -9.9175 H   0  0  0  0  0  0  0  0  0  0  0  0
    1.5024    2.8892   -8.6281 H   0  0  0  0  0  0  0  0  0  0  0  0
    2.2256    0.5374   -4.6869 H   0  0  0  0  0  0  0  0  0  0  0  0
    2.5653   -0.7661   -2.6390 H   0  0  0  0  0  0  0  0  0  0  0  0
    0.4089   -0.9693   -0.3466 H   0  0  0  0  0  0  0  0  0  0  0  0
  1  2  4  0
  2  3  4  0
  3  4  4  0
  4  5  4  0
  5  6  4  0
  6  7  4  0
  7  8  4  0
  8  9  4  0
  9 10  4  0
 10 11  4  0
 11 12  4  0
 12 13  4  0
 13 14  4  0
 14 15  4  0
 15 16  4  0
 16 17  4  0
 17 18  4  0
 11 19  4  0
 19 20  4  0
 20 21  4  0
 21 22  4  0
 22 23  1  0
 23 24  4  0
 24 25  4  0
 25 26  4  0
 26 27  4  0
 27 28  4  0
 28 29  4  0
 29 30  4  0
 30 31  4  0
 31 32  4  0
 32 33  4  0
 33 34  4  0
 34 35  4  0
 35 36  4  0
 36 37  4  0
 37 38  4  0
 38 39  4  0
 39 40  4  0
 40 41  4  0
 41 42  1  0
 42 43  4  0
 43 44  4  0
 44 45  4  0
 45 46  4  0
 46 47  4  0
 47 48  4  0
 48 49  4  0
 49 50  4  0
 50 51  4  0
 51 52  4  0
 52 53  4  0
 53 54  4  0
 54 55  4  0
 55 56  4  0
 56 57  4  0
 57 58  4  0
 58 59  4  0
 59 60  4  0
 60 61  4  0
 61 62  4  0
 62 63  4  0
 41 64  4  0
 64 65  4  0
 65 66  4  0
 18  1  4  0
 66 23  4  0
 17  4  4  0
 29 24  4  0
 66 31  4  0
 15  6  4  0
 64 33  4  0
 13  8  4  0
 40 35  4  0
 63 42  4  0
 22 10  4  0
 63 46  4  0
 61 48  4  0
 59 50  4  0
 57 52  4  0
  1 67  1  0
  2 68  1  0
  3 69  1  0
  7 70  1  0
  9 71  1  0
 12 72  1  0
 14 73  1  0
 16 74  1  0
 18 75  1  0
 19 76  1  0
 20 77  1  0
 21 78  1  0
 25 79  1  0
 26 80  1  0
 27 81  1  0
 28 82  1  0
 30 83  1  0
 32 84  1  0
 34 85  1  0
 36 86  1  0
 37 87  1  0
 38 88  1  0
 39 89  1  0
 43 90  1  0
 44 91  1  0
 45 92  1  0
 47 93  1  0
 49 94  1  0
 51 95  1  0
 53 96  1  0
 54 97  1  0
 55 98  1  0
 56 99  1  0
 60100  1  0
 62101  1  0
 65102  1  0
M  END
