
     RDKit          3D

102116  0  0  0  0  0  0  0  0999 V2000
    4.7515    1.1364    4.8219 C   0  0  0  0  0  0  0  0  0  0  0  0
    4.9122   -0.1711    4.3783 C   0  0  0  0  0  0  0  0  0  0  0  0
    4.4297   -0.5411    3.1193 C   0  0  0  0  0  0  0  0  0  0  0  0
    3.7891    0.3667    2.2864 C   0  0  0  0  0  0  0  0  0  0  0  0
    3.3553   -0.0355    1.0803 N   0  0  0  0  0  0  0  0  0  0  0  0
    2.7285    0.8280    0.2490 C   0  0  0  0  0  0  0  0  0  0  0  0
    2.5390    2.1695    0.6231 C   0  0  0  0  0  0  0  0  0  0  0  0
    3.0005    2.5884    1.8776 C   0  0  0  0  0  0  0  0  0  0  0  0
    3.6359    1.6865    2.7351 C   0  0  0  0  0  0  0  0  0  0  0  0
    4.1155    2.0668    4.0023 C   0  0  0  0  0  0  0  0  0  0  0  0
    1.8942    3.0684   -0.2378 C   0  0  0  0  0  0  0  0  0  0  0  0
    1.4149    2.6638   -1.4874 C   0  0  0  0  0  0  0  0  0  0  0  0
    0.7681    3.5865   -2.3287 C   0  0  0  0  0  0  0  0  0  0  0  0
    0.2612    3.2106   -3.5812 C   0  0  0  0  0  0  0  0  0  0  0  0
   -0.3846    4.1318   -4.4234 C   0  0  0  0  0  0  0  0  0  0  0  0
   -0.8833    3.7357   -5.6654 C   0  0  0  0  0  0  0  0  0  0  0  0
   -0.7436    2.4150   -6.0798 C   0  0  0  0  0  0  0  0  0  0  0  0
   -0.1045    1.4903   -5.2526 C   0  0  0  0  0  0  0  0  0  0  0  0
    0.4036    1.8755   -4.0008 C   0  0  0  0  0  0  0  0  0  0  0  0
    1.0523    0.9583   -3.1562 C   0  0  0  0  0  0  0  0  0  0  0  0
    1.5750    1.3231   -1.8907 C   0  0  0  0  0  0  0  0  0  0  0  0
    2.2343    0.4073   -1.0068 C   0  0  0  0  0  0  0  0  0  0  0  0
    2.3402   -1.0426   -1.3624 C   0  0  0  0  0  0  0  0  0  0  0  0
    3.4711   -1.5380   -2.0799 C   0  0  0  0  0  0  0  0  0  0  0  0
    4.5456   -0.7236   -2.5126 C   0  0  0  0  0  0  0  0  0  0  0  0
    5.6298   -1.2468   -3.2204 C   0  0  0  0  0  0  0  0  0  0  0  0
    5.6729   -2.6019   -3.5152 C   0  0  0  0  0  0  0  0  0  0  0  0
    4.6333   -3.4307   -3.0971 C   0  0  0  0  0  0  0  0  0  0  0  0
    3.5358   -2.9172   -2.3835 C   0  0  0  0  0  0  0  0  0  0  0  0
    2.5061   -3.7733   -1.9659 C   0  0  0  0  0  0  0  0  0  0  0  0
    1.3936   -3.3032   -1.2546 C   0  0  0  0  0  0  0  0  0  0  0  0
    0.3826   -4.1838   -0.8258 C   0  0  0  0  0  0  0  0  0  0  0  0
   -0.7403   -3.7376   -0.1033 C   0  0  0  0  0  0  0  0  0  0  0  0
   -1.7175   -4.6401    0.3372 C   0  0  0  0  0  0  0  0  0  0  0  0
   -2.8375   -4.2208    1.0694 C   0  0  0  0  0  0  0  0  0  0  0  0
   -3.7851   -5.1632    1.5050 C   0  0  0  0  0  0  0  0  0  0  0  0
   -4.9056   -4.7729    2.2357 C   0  0  0  0  0  0  0  0  0  0  0  0
   -5.0928   -3.4329    2.5416 C   0  0  0  0  0  0  0  0  0  0  0  0
   -4.1596   -2.4861    2.1145 C   0  0  0  0  0  0  0  0  0  0  0  0
   -3.0119   -2.8499    1.3684 C   0  0  0  0  0  0  0  0  0  0  0  0
   -2.0359   -1.9144    0.9068 C   0  0  0  0  0  0  0  0  0  0  0  0
   -2.2119   -0.4462    1.1453 C   0  0  0  0  0  0  0  0  0  0  0  0
   -2.9920    0.3413    0.2354 C   0  0  0  0  0  0  0  0  0  0  0  0
   -3.6748   -0.1955   -0.8842 C   0  0  0  0  0  0  0  0  0  0  0  0
   -4.4222    0.5998   -1.7689 C   0  0  0  0  0  0  0  0  0  0  0  0
   -5.0862    0.0426   -2.8740 C   0  0  0  0  0  0  0  0  0  0  0  0
   -5.8233    0.8470   -3.7439 C   0  0  0  0  0  0  0  0  0  0  0  0
   -5.9046    2.2178   -3.5199 C   0  0  0  0  0  0  0  0  0  0  0  0
   -5.2484    2.7846   -2.4262 C   0  0  0  0  0  0  0  0  0  0  0  0
   -4.5035    1.9856   -1.5425 C   0  0  0  0  0  0  0  0  0  0  0  0
   -3.8318    2.5342   -0.4405 C   0  0  0  0  0  0  0  0  0  0  0  0
   -3.0803    1.7333    0.4382 C   0  0  0  0  0  0  0  0  0  0  0  0
   -2.3968    2.3167    1.5090 C   0  0  0  0  0  0  0  0  0  0  0  0
   -1.6179    1.5466    2.3827 C   0  0  0  0  0  0  0  0  0  0  0  0
   -0.8930    2.1546    3.4150 C   0  0  0  0  0  0  0  0  0  0  0  0
   -0.0730    1.3891    4.2476 C   0  0  0  0  0  0  0  0  0  0  0  0
    0.7042    1.9659    5.2692 C   0  0  0  0  0  0  0  0  0  0  0  0
    1.5231    1.1686    6.0657 C   0  0  0  0  0  0  0  0  0  0  0  0
    1.5673   -0.2024    5.8430 C   0  0  0  0  0  0  0  0  0  0  0  0
    0.7858   -0.7685    4.8314 C   0  0  0  0  0  0  0  0  0  0  0  0
   -0.0377    0.0045    4.0248 C   0  0  0  0  0  0  0  0  0  0  0  0
   -0.7643   -0.5847    3.0611 N   0  0  0  0  0  0  0  0  0  0  0  0
   -1.5253    0.1532    2.2240 C   0  0  0  0  0  0  0  0  0  0  0  0
   -0.8860   -2.3713    0.1842 C   0  0  0  0  0  0  0  0  0  0  0  0
    0.1407   -1.5086   -0.2634 C   0  0  0  0  0  0  0  0  0  0  0  0
    1.2942   -1.9346   -0.9608 C   0  0  0  0  0  0  0  0  0  0  0  0
    5.1212    1.4312    5.8004 H   0  0  0  0  0  0  0  0  0  0  0  0
    5.4090   -0.9069    5.0050 H   0  0  0  0  0  0  0  0  0  0  0  0
    4.5602   -1.5643    2.7732 H   0  0  0  0  0  0  0  0  0  0  0  0
    2.8627    3.6201    2.1910 H   0  0  0  0  0  0  0  0  0  0  0  0
    3.9928    3.0873    4.3561 H   0  0  0  0  0  0  0  0  0  0  0  0
    1.7592    4.1021    0.0763 H   0  0  0  0  0  0  0  0  0  0  0  0
    0.6532    4.6189   -2.0029 H   0  0  0  0  0  0  0  0  0  0  0  0
   -0.5036    5.1682   -4.1165 H   0  0  0  0  0  0  0  0  0  0  0  0
   -1.3805    4.4578   -6.3075 H   0  0  0  0  0  0  0  0  0  0  0  0
   -1.1311    2.1020   -7.0457 H   0  0  0  0  0  0  0  0  0  0  0  0
   -0.0040    0.4612   -5.5912 H   0  0  0  0  0  0  0  0  0  0  0  0
    1.1483   -0.0718   -3.4975 H   0  0  0  0  0  0  0  0  0  0  0  0
    4.5510    0.3422   -2.2937 H   0  0  0  0  0  0  0  0  0  0  0  0
    6.4375   -0.5913   -3.5336 H   0  0  0  0  0  0  0  0  0  0  0  0
    6.5146   -3.0159   -4.0635 H   0  0  0  0  0  0  0  0  0  0  0  0
    4.6876   -4.4917   -3.3310 H   0  0  0  0  0  0  0  0  0  0  0  0
    2.5748   -4.8353   -2.1950 H   0  0  0  0  0  0  0  0  0  0  0  0
    0.4783   -5.2453   -1.0490 H   0  0  0  0  0  0  0  0  0  0  0  0
   -1.5961   -5.6991    0.1149 H   0  0  0  0  0  0  0  0  0  0  0  0
   -3.6527   -6.2193    1.2801 H   0  0  0  0  0  0  0  0  0  0  0  0
   -5.6257   -5.5151    2.5684 H   0  0  0  0  0  0  0  0  0  0  0  0
   -5.9593   -3.1177    3.1161 H   0  0  0  0  0  0  0  0  0  0  0  0
   -4.3365   -1.4465    2.3820 H   0  0  0  0  0  0  0  0  0  0  0  0
   -3.6206   -1.2654   -1.0820 H   0  0  0  0  0  0  0  0  0  0  0  0
   -5.0317   -1.0273   -3.0640 H   0  0  0  0  0  0  0  0  0  0  0  0
   -6.3320    0.4021   -4.5950 H   0  0  0  0  0  0  0  0  0  0  0  0
   -6.4771    2.8468   -4.1962 H   0  0  0  0  0  0  0  0  0  0  0  0
   -5.3221    3.8581   -2.2686 H   0  0  0  0  0  0  0  0  0  0  0  0
   -3.8885    3.6083   -0.2708 H   0  0  0  0  0  0  0  0  0  0  0  0
   -2.4504    3.3942    1.6538 H   0  0  0  0  0  0  0  0  0  0  0  0
   -0.9459    3.2314    3.5555 H   0  0  0  0  0  0  0  0  0  0  0  0
    0.6800    3.0385    5.4411 H   0  0  0  0  0  0  0  0  0  0  0  0
    2.1259    1.6146    6.8527 H   0  0  0  0  0  0  0  0  0  0  0  0
    2.2106   -0.8373    6.4459 H   0  0  0  0  0  0  0  0  0  0  0  0
    0.8305   -1.8409    4.6551 H   0  0  0  0  0  0  0  0  0  0  0  0
    0.0484   -0.4498   -0.0365 H   0  0  0  0  0  0  0  0  0  0  0  0
  1  2  4  0
  2  3  4  0
  3  4  4  0
  4  5  4  0
  5  6  4  0
  6  7  4  0
  7  8  4  0
  8  9  4  0
  9 10  4  0
  7 11  4  0
 11 12  4  0
 12 13  4  0
 13 14  4  0
 14 15  4  0
 15 16  4  0
 16 17  4  0
 17 18  4  0
 18 19  4  0
 19 20  4  0
 20 21  4  0
 21 22  4  0
 22 23  1  0
 23 24  4  0
 24 25  4  0
 25 26  4  0
 26 27  4  0
 27 28  4  0
 28 29  4  0
 29 30  4  0
 30 31  4  0
 31 32  4  0
 32 33  4  0
 33 34  4  0
 34 35  4  0
 35 36  4  0
 36 37  4  0
 37 38  4  0
 38 39  4  0
 39 40  4  0
 40 41  4  0
 41 42  1  0
 42 43  4  0
 43 44  4  0
 44 45  4  0
 45 46  4  0
 46 47  4  0
 47 48  4  0
 48 49  4  0
 49 50  4  0
 50 51  4  0
 51 52  4  0
 52 53  4  0
 53 54  4  0
 54 55  4  0
 55 56  4  0
 56 57  4  0
 57 58  4  0
 58 59  4  0
 59 60  4  0
 60 61  4  0
 61 62  4  0
 62 63  4  0
 41 64  4  0
 64 65  4  0
 65 66  4  0
 10  1  4  0
 21 12  4  0
 66 23  4  0
  9  4  4  0
 19 14  4  0
 29 24  4  0
 66 31  4  0
 22  6  4  0
 64 33  4  0
 40 35  4  0
 63 42  4  0
 52 43  4  0
 63 54  4  0
 50 45  4  0
 61 56  4  0
  1 67  1  0
  2 68  1  0
  3 69  1  0
  8 70  1  0
 10 71  1  0
 11 72  1  0
 13 73  1  0
 15 74  1  0
 16 75  1  0
 17 76  1  0
 18 77  1  0
 20 78  1  0
 25 79  1  0
 26 80  1  0
 27 81  1  0
 28 82  1  0
 30 83  1  0
 32 84  1  0
 34 85  1  0
 36 86  1  0
 37 87  1  0
 38 88  1  0
 39 89  1  0
 44 90  1  0
 46 91  1  0
 47 92  1  0
 48 93  1  0
 49 94  1  0
 51 95  1  0
 53 96  1  0
 55 97  1  0
 57 98  1  0
 58 99  1  0
 59100  1  0
 60101  1  0
 65102  1  0
M  END
