
     RDKit          3D

102116  0  0  0  0  0  0  0  0999 V2000
    2.2651   -4.8309   -6.1643 C   0  0  0  0  0  0  0  0  0  0  0  0
    2.5060   -5.9021   -5.3119 C   0  0  0  0  0  0  0  0  0  0  0  0
    2.6491   -5.6804   -3.9387 C   0  0  0  0  0  0  0  0  0  0  0  0
    2.5574   -4.4085   -3.3893 C   0  0  0  0  0  0  0  0  0  0  0  0
    2.7031   -4.2512   -2.0620 N   0  0  0  0  0  0  0  0  0  0  0  0
    2.6145   -3.0183   -1.5338 C   0  0  0  0  0  0  0  0  0  0  0  0
    2.7665   -2.8543   -0.1639 C   0  0  0  0  0  0  0  0  0  0  0  0
    2.6900   -1.5936    0.4552 C   0  0  0  0  0  0  0  0  0  0  0  0
    2.8499   -1.4404    1.8413 C   0  0  0  0  0  0  0  0  0  0  0  0
    2.7815   -0.1786    2.4566 C   0  0  0  0  0  0  0  0  0  0  0  0
    2.9513   -0.0592    3.8442 C   0  0  0  0  0  0  0  0  0  0  0  0
    2.8925    1.1830    4.4695 C   0  0  0  0  0  0  0  0  0  0  0  0
    2.6597    2.3259    3.7131 C   0  0  0  0  0  0  0  0  0  0  0  0
    2.4809    2.2463    2.3196 C   0  0  0  0  0  0  0  0  0  0  0  0
    2.2161    3.5027    1.5692 C   0  0  0  0  0  0  0  0  0  0  0  0
    3.3043    4.2442    1.0097 C   0  0  0  0  0  0  0  0  0  0  0  0
    4.6637    3.8618    1.1300 C   0  0  0  0  0  0  0  0  0  0  0  0
    5.6963    4.6117    0.5628 C   0  0  0  0  0  0  0  0  0  0  0  0
    5.4003    5.7683   -0.1429 C   0  0  0  0  0  0  0  0  0  0  0  0
    4.0736    6.1712   -0.2801 C   0  0  0  0  0  0  0  0  0  0  0  0
    3.0254    5.4243    0.2852 C   0  0  0  0  0  0  0  0  0  0  0  0
    1.6992    5.8459    0.1261 C   0  0  0  0  0  0  0  0  0  0  0  0
    0.6240    5.1284    0.6664 C   0  0  0  0  0  0  0  0  0  0  0  0
   -0.6948    5.5744    0.4766 C   0  0  0  0  0  0  0  0  0  0  0  0
   -1.8005    4.8772    0.9918 C   0  0  0  0  0  0  0  0  0  0  0  0
   -3.1014    5.3486    0.7705 C   0  0  0  0  0  0  0  0  0  0  0  0
   -4.2268    4.6710    1.2566 C   0  0  0  0  0  0  0  0  0  0  0  0
   -5.5148    5.1743    1.0028 C   0  0  0  0  0  0  0  0  0  0  0  0
   -6.6500    4.5141    1.4682 C   0  0  0  0  0  0  0  0  0  0  0  0
   -6.5115    3.3401    2.1934 C   0  0  0  0  0  0  0  0  0  0  0  0
   -5.2372    2.8314    2.4540 C   0  0  0  0  0  0  0  0  0  0  0  0
   -4.0626    3.4801    1.9987 C   0  0  0  0  0  0  0  0  0  0  0  0
   -2.7395    2.9947    2.2441 C   0  0  0  0  0  0  0  0  0  0  0  0
   -2.5364    1.7554    3.0408 C   0  0  0  0  0  0  0  0  0  0  0  0
   -2.4727    1.8717    4.4426 C   0  0  0  0  0  0  0  0  0  0  0  0
   -2.2530    0.7567    5.2430 C   0  0  0  0  0  0  0  0  0  0  0  0
   -2.0880   -0.4935    4.6542 C   0  0  0  0  0  0  0  0  0  0  0  0
   -2.1439   -0.6494    3.2608 C   0  0  0  0  0  0  0  0  0  0  0  0
   -1.9658   -1.9187    2.6849 C   0  0  0  0  0  0  0  0  0  0  0  0
   -2.0103   -2.1103    1.2953 C   0  0  0  0  0  0  0  0  0  0  0  0
   -1.8259   -3.3799    0.7189 C   0  0  0  0  0  0  0  0  0  0  0  0
   -1.8644   -3.5845   -0.6533 C   0  0  0  0  0  0  0  0  0  0  0  0
   -1.6768   -4.8244   -1.1374 N   0  0  0  0  0  0  0  0  0  0  0  0
   -1.7141   -5.0237   -2.4667 C   0  0  0  0  0  0  0  0  0  0  0  0
   -1.5211   -6.3036   -2.9696 C   0  0  0  0  0  0  0  0  0  0  0  0
   -1.5496   -6.5680   -4.3423 C   0  0  0  0  0  0  0  0  0  0  0  0
   -1.7762   -5.5325   -5.2415 C   0  0  0  0  0  0  0  0  0  0  0  0
   -1.9730   -4.2385   -4.7642 C   0  0  0  0  0  0  0  0  0  0  0  0
   -1.9431   -3.9791   -3.3819 C   0  0  0  0  0  0  0  0  0  0  0  0
   -2.1363   -2.6929   -2.8667 C   0  0  0  0  0  0  0  0  0  0  0  0
   -2.0990   -2.4763   -1.4846 C   0  0  0  0  0  0  0  0  0  0  0  0
   -2.2868   -1.1991   -0.9274 C   0  0  0  0  0  0  0  0  0  0  0  0
   -2.2432   -1.0056    0.4610 C   0  0  0  0  0  0  0  0  0  0  0  0
   -2.4237    0.2639    1.0354 C   0  0  0  0  0  0  0  0  0  0  0  0
   -2.3750    0.4754    2.4336 C   0  0  0  0  0  0  0  0  0  0  0  0
   -1.6021    3.6987    1.7304 C   0  0  0  0  0  0  0  0  0  0  0  0
   -0.2625    3.2724    1.9157 C   0  0  0  0  0  0  0  0  0  0  0  0
    0.8673    3.9530    1.3965 C   0  0  0  0  0  0  0  0  0  0  0  0
    2.5422    0.9762    1.6747 C   0  0  0  0  0  0  0  0  0  0  0  0
    2.3755    0.8033    0.2809 C   0  0  0  0  0  0  0  0  0  0  0  0
    2.4494   -0.4573   -0.3332 C   0  0  0  0  0  0  0  0  0  0  0  0
    2.2910   -0.6092   -1.7176 C   0  0  0  0  0  0  0  0  0  0  0  0
    2.3734   -1.8771   -2.3174 C   0  0  0  0  0  0  0  0  0  0  0  0
    2.2223   -2.0502   -3.6973 C   0  0  0  0  0  0  0  0  0  0  0  0
    2.3132   -3.3280   -4.2577 C   0  0  0  0  0  0  0  0  0  0  0  0
    2.1684   -3.5440   -5.6400 C   0  0  0  0  0  0  0  0  0  0  0  0
    2.1530   -4.9965   -7.2326 H   0  0  0  0  0  0  0  0  0  0  0  0
    2.5837   -6.9111   -5.7080 H   0  0  0  0  0  0  0  0  0  0  0  0
    2.8375   -6.5235   -3.2780 H   0  0  0  0  0  0  0  0  0  0  0  0
    2.9526   -3.7431    0.4358 H   0  0  0  0  0  0  0  0  0  0  0  0
    3.0345   -2.3227    2.4526 H   0  0  0  0  0  0  0  0  0  0  0  0
    3.1327   -0.9420    4.4540 H   0  0  0  0  0  0  0  0  0  0  0  0
    3.0258    1.2595    5.5452 H   0  0  0  0  0  0  0  0  0  0  0  0
    2.6102    3.2923    4.2112 H   0  0  0  0  0  0  0  0  0  0  0  0
    4.9361    2.9577    1.6720 H   0  0  0  0  0  0  0  0  0  0  0  0
    6.7272    4.2863    0.6743 H   0  0  0  0  0  0  0  0  0  0  0  0
    6.1981    6.3561   -0.5882 H   0  0  0  0  0  0  0  0  0  0  0  0
    3.8624    7.0804   -0.8393 H   0  0  0  0  0  0  0  0  0  0  0  0
    1.4986    6.7564   -0.4373 H   0  0  0  0  0  0  0  0  0  0  0  0
   -0.8660    6.4872   -0.0930 H   0  0  0  0  0  0  0  0  0  0  0  0
   -3.2426    6.2656    0.1996 H   0  0  0  0  0  0  0  0  0  0  0  0
   -5.6449    6.0926    0.4334 H   0  0  0  0  0  0  0  0  0  0  0  0
   -7.6384    4.9159    1.2619 H   0  0  0  0  0  0  0  0  0  0  0  0
   -7.3898    2.8141    2.5582 H   0  0  0  0  0  0  0  0  0  0  0  0
   -5.1709    1.9048    3.0218 H   0  0  0  0  0  0  0  0  0  0  0  0
   -2.5903    2.8474    4.9117 H   0  0  0  0  0  0  0  0  0  0  0  0
   -2.2039    0.8631    6.3233 H   0  0  0  0  0  0  0  0  0  0  0  0
   -1.9102   -1.3531    5.2972 H   0  0  0  0  0  0  0  0  0  0  0  0
   -1.7848   -2.7766    3.3308 H   0  0  0  0  0  0  0  0  0  0  0  0
   -1.6433   -4.2435    1.3553 H   0  0  0  0  0  0  0  0  0  0  0  0
   -1.3433   -7.1181   -2.2713 H   0  0  0  0  0  0  0  0  0  0  0  0
   -1.3945   -7.5820   -4.7016 H   0  0  0  0  0  0  0  0  0  0  0  0
   -1.7996   -5.7311   -6.3098 H   0  0  0  0  0  0  0  0  0  0  0  0
   -2.1496   -3.4334   -5.4737 H   0  0  0  0  0  0  0  0  0  0  0  0
   -2.3154   -1.8597   -3.5419 H   0  0  0  0  0  0  0  0  0  0  0  0
   -2.4660   -0.3483   -1.5822 H   0  0  0  0  0  0  0  0  0  0  0  0
   -2.6027    1.1100    0.3735 H   0  0  0  0  0  0  0  0  0  0  0  0
   -0.0910    2.3606    2.4865 H   0  0  0  0  0  0  0  0  0  0  0  0
    2.1850    1.6729   -0.3465 H   0  0  0  0  0  0  0  0  0  0  0  0
    2.1038    0.2670   -2.3357 H   0  0  0  0  0  0  0  0  0  0  0  0
    2.0350   -1.1903   -4.3357 H   0  0  0  0  0  0  0  0  0  0  0  0
    1.9800   -2.7102   -6.3123 H   0  0  0  0  0  0  0  0  0  0  0  0
  1  2  4  0
  2  3  4  0
  3  4  4  0
  4  5  4  0
  5  6  4  0
  6  7  4  0
  7  8  4  0
  8  9  4  0
  9 10  4  0
 10 11  4  0
 11 12  4  0
 12 13  4  0
 13 14  4  0
 14 15  1  0
 15 16  4  0
 16 17  4  0
 17 18  4  0
 18 19  4  0
 19 20  4  0
 20 21  4  0
 21 22  4  0
 22 23  4  0
 23 24  4  0
 24 25  4  0
 25 26  4  0
 26 27  4  0
 27 28  4  0
 28 29  4  0
 29 30  4  0
 30 31  4  0
 31 32  4  0
 32 33  4  0
 33 34  1  0
 34 35  4  0
 35 36  4  0
 36 37  4  0
 37 38  4  0
 38 39  4  0
 39 40  4  0
 40 41  4  0
 41 42  4  0
 42 43  4  0
 43 44  4  0
 44 45  4  0
 45 46  4  0
 46 47  4  0
 47 48  4  0
 48 49  4  0
 49 50  4  0
 50 51  4  0
 51 52  4  0
 52 53  4  0
 53 54  4  0
 54 55  4  0
 33 56  4  0
 56 57  4  0
 57 58  4  0
 14 59  4  0
 59 60  4  0
 60 61  4  0
 61 62  4  0
 62 63  4  0
 63 64  4  0
 64 65  4  0
 65 66  4  0
 66  1  4  0
 65  4  4  0
 63  6  4  0
 61  8  4  0
 59 10  4  0
 58 15  4  0
 21 16  4  0
 58 23  4  0
 56 25  4  0
 32 27  4  0
 55 34  4  0
 55 38  4  0
 53 40  4  0
 51 42  4  0
 49 44  4  0
  1 67  1  0
  2 68  1  0
  3 69  1  0
  7 70  1  0
  9 71  1  0
 11 72  1  0
 12 73  1  0
 13 74  1  0
 17 75  1  0
 18 76  1  0
 19 77  1  0
 20 78  1  0
 22 79  1  0
 24 80  1  0
 26 81  1  0
 28 82  1  0
 29 83  1  0
 30 84  1  0
 31 85  1  0
 35 86  1  0
 36 87  1  0
 37 88  1  0
 39 89  1  0
 41 90  1  0
 45 91  1  0
 46 92  1  0
 47 93  1  0
 48 94  1  0
 50 95  1  0
 52 96  1  0
 54 97  1  0
 57 98  1  0
 60 99  1  0
 62100  1  0
 64101  1  0
 66102  1  0
M  END
