
     RDKit          3D

 92106  0  0  0  0  0  0  0  0999 V2000
    9.0030    4.0503    4.0105 C   0  0  0  0  0  0  0  0  0  0  0  0
    8.5976    2.7819    3.6670 C   0  0  0  0  0  0  0  0  0  0  0  0
    7.4904    2.7781    2.7533 C   0  0  0  0  0  0  0  0  0  0  0  0
    6.7856    1.7008    2.1641 C   0  0  0  0  0  0  0  0  0  0  0  0
    5.7136    1.9273    1.2814 C   0  0  0  0  0  0  0  0  0  0  0  0
    5.3335    3.2445    0.9755 C   0  0  0  0  0  0  0  0  0  0  0  0
    4.2631    3.4601    0.0916 C   0  0  0  0  0  0  0  0  0  0  0  0
    3.5628    2.3920   -0.4929 C   0  0  0  0  0  0  0  0  0  0  0  0
    2.4931    2.6244   -1.3729 C   0  0  0  0  0  0  0  0  0  0  0  0
    1.8013    1.5332   -1.9345 C   0  0  0  0  0  0  0  0  0  0  0  0
    0.4586    1.6065   -3.0108 S   0  0  0  0  0  0  0  0  0  0  0  0
    0.3180   -0.0904   -3.0722 C   0  0  0  0  0  0  0  0  0  0  0  0
    1.2854   -0.7206   -2.3173 C   0  0  0  0  0  0  0  0  0  0  0  0
    1.2906   -2.1838   -2.1879 C   0  0  0  0  0  0  0  0  0  0  0  0
    1.9075   -2.9823   -3.1956 C   0  0  0  0  0  0  0  0  0  0  0  0
    2.5644   -2.4603   -4.3389 C   0  0  0  0  0  0  0  0  0  0  0  0
    3.1483   -3.2911   -5.2973 C   0  0  0  0  0  0  0  0  0  0  0  0
    3.0946   -4.6685   -5.1408 C   0  0  0  0  0  0  0  0  0  0  0  0
    2.4609   -5.2117   -4.0247 C   0  0  0  0  0  0  0  0  0  0  0  0
    1.8707   -4.3872   -3.0508 C   0  0  0  0  0  0  0  0  0  0  0  0
    1.2457   -4.9582   -1.9319 C   0  0  0  0  0  0  0  0  0  0  0  0
    0.6531   -4.1753   -0.9301 C   0  0  0  0  0  0  0  0  0  0  0  0
    0.0410   -4.7781    0.1839 C   0  0  0  0  0  0  0  0  0  0  0  0
   -0.5558   -4.0232    1.2099 C   0  0  0  0  0  0  0  0  0  0  0  0
   -1.1608   -4.6555    2.3065 C   0  0  0  0  0  0  0  0  0  0  0  0
   -1.7662   -3.9294    3.3435 C   0  0  0  0  0  0  0  0  0  0  0  0
   -2.3699   -4.6053    4.4182 C   0  0  0  0  0  0  0  0  0  0  0  0
   -2.9809   -3.9055    5.4571 C   0  0  0  0  0  0  0  0  0  0  0  0
   -2.9970   -2.5184    5.4356 C   0  0  0  0  0  0  0  0  0  0  0  0
   -2.3992   -1.8341    4.3755 C   0  0  0  0  0  0  0  0  0  0  0  0
   -1.7682   -2.5172    3.3051 C   0  0  0  0  0  0  0  0  0  0  0  0
   -1.1432   -1.8717    2.1983 C   0  0  0  0  0  0  0  0  0  0  0  0
   -1.1074   -0.4054    2.1344 C   0  0  0  0  0  0  0  0  0  0  0  0
   -0.0742    0.2948    2.7216 C   0  0  0  0  0  0  0  0  0  0  0  0
   -0.1985    1.9721    2.4492 S   0  0  0  0  0  0  0  0  0  0  0  0
   -1.6381    1.7921    1.5204 C   0  0  0  0  0  0  0  0  0  0  0  0
   -2.3752    2.8190    0.8986 C   0  0  0  0  0  0  0  0  0  0  0  0
   -3.5288    2.5006    0.1635 C   0  0  0  0  0  0  0  0  0  0  0  0
   -4.2824    3.5031   -0.4691 C   0  0  0  0  0  0  0  0  0  0  0  0
   -5.4382    3.2013   -1.2084 C   0  0  0  0  0  0  0  0  0  0  0  0
   -5.8496    1.8627   -1.3186 C   0  0  0  0  0  0  0  0  0  0  0  0
   -5.0961    0.8596   -0.6866 C   0  0  0  0  0  0  0  0  0  0  0  0
   -3.9414    1.1632    0.0535 C   0  0  0  0  0  0  0  0  0  0  0  0
   -3.1936    0.1527    0.6832 C   0  0  0  0  0  0  0  0  0  0  0  0
   -2.0267    0.4552    1.4300 C   0  0  0  0  0  0  0  0  0  0  0  0
   -7.0054    1.5496   -2.0571 C   0  0  0  0  0  0  0  0  0  0  0  0
   -7.7649    2.5607   -2.6934 C   0  0  0  0  0  0  0  0  0  0  0  0
   -8.9589    2.4732   -3.4855 C   0  0  0  0  0  0  0  0  0  0  0  0
   -9.3957    3.6986   -3.9310 C   0  0  0  0  0  0  0  0  0  0  0  0
   -8.3826    4.9655   -3.4066 S   0  0  0  0  0  0  0  0  0  0  0  0
   -7.3358    3.8821   -2.5686 C   0  0  0  0  0  0  0  0  0  0  0  0
   -6.1814    4.2163   -1.8338 C   0  0  0  0  0  0  0  0  0  0  0  0
   -0.5464   -2.6212    1.1383 C   0  0  0  0  0  0  0  0  0  0  0  0
    0.0645   -2.0363    0.0016 C   0  0  0  0  0  0  0  0  0  0  0  0
    0.6712   -2.7760   -1.0437 C   0  0  0  0  0  0  0  0  0  0  0  0
    2.1566    0.2151   -1.6466 C   0  0  0  0  0  0  0  0  0  0  0  0
    3.2444    0.0002   -0.7622 C   0  0  0  0  0  0  0  0  0  0  0  0
    3.9424    1.0758   -0.1855 C   0  0  0  0  0  0  0  0  0  0  0  0
    5.0131    0.8586    0.6975 C   0  0  0  0  0  0  0  0  0  0  0  0
    6.0229    4.3243    1.5520 C   0  0  0  0  0  0  0  0  0  0  0  0
    7.0930    4.0765    2.4341 C   0  0  0  0  0  0  0  0  0  0  0  0
    8.0639    5.2488    3.2435 S   0  0  0  0  0  0  0  0  0  0  0  0
    9.8074    4.3309    4.6764 H   0  0  0  0  0  0  0  0  0  0  0  0
    9.0710    1.8869    4.0516 H   0  0  0  0  0  0  0  0  0  0  0  0
    7.0886    0.6843    2.4050 H   0  0  0  0  0  0  0  0  0  0  0  0
    3.9679    4.4811   -0.1457 H   0  0  0  0  0  0  0  0  0  0  0  0
    2.1863    3.6380   -1.6179 H   0  0  0  0  0  0  0  0  0  0  0  0
   -0.4750   -0.5459   -3.6507 H   0  0  0  0  0  0  0  0  0  0  0  0
    2.6330   -1.3850   -4.4943 H   0  0  0  0  0  0  0  0  0  0  0  0
    3.6440   -2.8573   -6.1619 H   0  0  0  0  0  0  0  0  0  0  0  0
    3.5464   -5.3210   -5.8832 H   0  0  0  0  0  0  0  0  0  0  0  0
    2.4325   -6.2944   -3.9190 H   0  0  0  0  0  0  0  0  0  0  0  0
    1.2245   -6.0435   -1.8362 H   0  0  0  0  0  0  0  0  0  0  0  0
    0.0301   -5.8654    0.2552 H   0  0  0  0  0  0  0  0  0  0  0  0
   -1.1641   -5.7442    2.3529 H   0  0  0  0  0  0  0  0  0  0  0  0
   -2.3708   -5.6930    4.4541 H   0  0  0  0  0  0  0  0  0  0  0  0
   -3.4444   -4.4443    6.2793 H   0  0  0  0  0  0  0  0  0  0  0  0
   -3.4739   -1.9638    6.2398 H   0  0  0  0  0  0  0  0  0  0  0  0
   -2.4349   -0.7462    4.3919 H   0  0  0  0  0  0  0  0  0  0  0  0
    0.7580   -0.0994    3.2897 H   0  0  0  0  0  0  0  0  0  0  0  0
   -2.0414    3.8494    0.9889 H   0  0  0  0  0  0  0  0  0  0  0  0
   -3.9621    4.5404   -0.3841 H   0  0  0  0  0  0  0  0  0  0  0  0
   -5.4145   -0.1783   -0.7717 H   0  0  0  0  0  0  0  0  0  0  0  0
   -3.5057   -0.8865    0.6004 H   0  0  0  0  0  0  0  0  0  0  0  0
   -7.3308    0.5158   -2.1477 H   0  0  0  0  0  0  0  0  0  0  0  0
   -9.4697    1.5459   -3.7142 H   0  0  0  0  0  0  0  0  0  0  0  0
  -10.2632    3.9109   -4.5406 H   0  0  0  0  0  0  0  0  0  0  0  0
   -5.8764    5.2568   -1.7569 H   0  0  0  0  0  0  0  0  0  0  0  0
    0.0682   -0.9503   -0.0725 H   0  0  0  0  0  0  0  0  0  0  0  0
    3.5287   -1.0228   -0.5238 H   0  0  0  0  0  0  0  0  0  0  0  0
    5.3068   -0.1628    0.9346 H   0  0  0  0  0  0  0  0  0  0  0  0
    5.7411    5.3494    1.3250 H   0  0  0  0  0  0  0  0  0  0  0  0
  1  2  4  0
  2  3  4  0
  3  4  4  0
  4  5  4  0
  5  6  4  0
  6  7  4  0
  7  8  4  0
  8  9  4  0
  9 10  4  0
 10 11  4  0
 11 12  4  0
 12 13  4  0
 13 14  1  0
 14 15  4  0
 15 16  4  0
 16 17  4  0
 17 18  4  0
 18 19  4  0
 19 20  4  0
 20 21  4  0
 21 22  4  0
 22 23  4  0
 23 24  4  0
 24 25  4  0
 25 26  4  0
 26 27  4  0
 27 28  4  0
 28 29  4  0
 29 30  4  0
 30 31  4  0
 31 32  4  0
 32 33  1  0
 33 34  4  0
 34 35  4  0
 35 36  4  0
 36 37  4  0
 37 38  4  0
 38 39  4  0
 39 40  4  0
 40 41  4  0
 41 42  4  0
 42 43  4  0
 43 44  4  0
 44 45  4  0
 41 46  4  0
 46 47  4  0
 47 48  4  0
 48 49  4  0
 49 50  4  0
 50 51  4  0
 51 52  4  0
 32 53  4  0
 53 54  4  0
 54 55  4  0
 13 56  4  0
 56 57  4  0
 57 58  4  0
 58 59  4  0
  6 60  4  0
 60 61  4  0
 61 62  4  0
 62  1  4  0
 61  3  4  0
 59  5  4  0
 58  8  4  0
 56 10  4  0
 55 14  4  0
 20 15  4  0
 55 22  4  0
 53 24  4  0
 31 26  4  0
 45 33  4  0
 51 47  4  0
 45 36  4  0
 43 38  4  0
 52 40  4  0
  1 63  1  0
  2 64  1  0
  4 65  1  0
  7 66  1  0
  9 67  1  0
 12 68  1  0
 16 69  1  0
 17 70  1  0
 18 71  1  0
 19 72  1  0
 21 73  1  0
 23 74  1  0
 25 75  1  0
 27 76  1  0
 28 77  1  0
 29 78  1  0
 30 79  1  0
 34 80  1  0
 37 81  1  0
 39 82  1  0
 42 83  1  0
 44 84  1  0
 46 85  1  0
 48 86  1  0
 49 87  1  0
 52 88  1  0
 54 89  1  0
 57 90  1  0
 59 91  1  0
 60 92  1  0
M  END
