
     RDKit          3D

 92106  0  0  0  0  0  0  0  0999 V2000
   -2.9942   -2.7152    6.7393 C   0  0  0  0  0  0  0  0  0  0  0  0
   -2.3267   -1.5134    6.7737 C   0  0  0  0  0  0  0  0  0  0  0  0
   -2.2761   -0.8666    5.4934 C   0  0  0  0  0  0  0  0  0  0  0  0
   -1.6933    0.3636    5.1048 C   0  0  0  0  0  0  0  0  0  0  0  0
   -1.7627    0.8129    3.7730 C   0  0  0  0  0  0  0  0  0  0  0  0
   -2.4187    0.0334    2.8113 C   0  0  0  0  0  0  0  0  0  0  0  0
   -3.0023   -1.1902    3.1801 C   0  0  0  0  0  0  0  0  0  0  0  0
   -2.9234   -1.6245    4.5174 C   0  0  0  0  0  0  0  0  0  0  0  0
   -3.5669   -3.0816    5.1760 S   0  0  0  0  0  0  0  0  0  0  0  0
   -2.4803    0.4954    1.4853 C   0  0  0  0  0  0  0  0  0  0  0  0
   -1.9085    1.7236    1.0750 C   0  0  0  0  0  0  0  0  0  0  0  0
   -1.2491    2.4881    2.0545 C   0  0  0  0  0  0  0  0  0  0  0  0
   -1.1853    2.0301    3.3820 C   0  0  0  0  0  0  0  0  0  0  0  0
   -0.6492    3.7071    1.7067 C   0  0  0  0  0  0  0  0  0  0  0  0
   -0.6862    4.2008    0.3838 C   0  0  0  0  0  0  0  0  0  0  0  0
   -0.1251    5.4041   -0.1633 C   0  0  0  0  0  0  0  0  0  0  0  0
   -0.3665    5.5437   -1.5073 C   0  0  0  0  0  0  0  0  0  0  0  0
   -1.2711    4.2438   -2.1265 S   0  0  0  0  0  0  0  0  0  0  0  0
   -1.3501    3.4464   -0.5856 C   0  0  0  0  0  0  0  0  0  0  0  0
   -1.9713    2.2020   -0.2708 C   0  0  0  0  0  0  0  0  0  0  0  0
   -2.6279    1.4277   -1.3591 C   0  0  0  0  0  0  0  0  0  0  0  0
   -4.0335    1.5580   -1.5891 C   0  0  0  0  0  0  0  0  0  0  0  0
   -4.8840    2.3927   -0.8223 C   0  0  0  0  0  0  0  0  0  0  0  0
   -6.2538    2.4867   -1.0773 C   0  0  0  0  0  0  0  0  0  0  0  0
   -6.8148    1.7499   -2.1098 C   0  0  0  0  0  0  0  0  0  0  0  0
   -6.0049    0.9230   -2.8854 C   0  0  0  0  0  0  0  0  0  0  0  0
   -4.6248    0.8193   -2.6386 C   0  0  0  0  0  0  0  0  0  0  0  0
   -3.8311   -0.0138   -3.4381 C   0  0  0  0  0  0  0  0  0  0  0  0
   -2.4520   -0.1452   -3.2299 C   0  0  0  0  0  0  0  0  0  0  0  0
   -1.6784   -0.9718   -4.0636 C   0  0  0  0  0  0  0  0  0  0  0  0
   -0.2900   -1.1131   -3.8941 C   0  0  0  0  0  0  0  0  0  0  0  0
    0.4547   -1.9268   -4.7582 C   0  0  0  0  0  0  0  0  0  0  0  0
    1.8410   -2.0783   -4.6219 C   0  0  0  0  0  0  0  0  0  0  0  0
    2.5489   -2.9041   -5.5128 C   0  0  0  0  0  0  0  0  0  0  0  0
    3.9278   -3.0694   -5.4001 C   0  0  0  0  0  0  0  0  0  0  0  0
    4.6177   -2.4083   -4.3946 C   0  0  0  0  0  0  0  0  0  0  0  0
    3.9262   -1.5845   -3.5037 C   0  0  0  0  0  0  0  0  0  0  0  0
    2.5243   -1.3979   -3.5888 C   0  0  0  0  0  0  0  0  0  0  0  0
    1.7762   -0.5694   -2.6951 C   0  0  0  0  0  0  0  0  0  0  0  0
    2.4612    0.1549   -1.5906 C   0  0  0  0  0  0  0  0  0  0  0  0
    2.8490    1.5126   -1.7872 C   0  0  0  0  0  0  0  0  0  0  0  0
    2.6709    2.4806   -3.2178 S   0  0  0  0  0  0  0  0  0  0  0  0
    3.3589    3.8515   -2.4835 C   0  0  0  0  0  0  0  0  0  0  0  0
    3.7305    3.6036   -1.1855 C   0  0  0  0  0  0  0  0  0  0  0  0
    3.4447    2.2593   -0.7687 C   0  0  0  0  0  0  0  0  0  0  0  0
    3.6701    1.6319    0.4769 C   0  0  0  0  0  0  0  0  0  0  0  0
    3.3069    0.2966    0.7057 C   0  0  0  0  0  0  0  0  0  0  0  0
    3.5449   -0.2896    1.9612 C   0  0  0  0  0  0  0  0  0  0  0  0
    3.1887   -1.6181    2.2377 C   0  0  0  0  0  0  0  0  0  0  0  0
    2.5759   -2.3786    1.2337 C   0  0  0  0  0  0  0  0  0  0  0  0
    2.2057   -3.7097    1.4895 C   0  0  0  0  0  0  0  0  0  0  0  0
    2.4564   -4.2711    2.7567 C   0  0  0  0  0  0  0  0  0  0  0  0
    2.0857   -5.8726    3.2758 S   0  0  0  0  0  0  0  0  0  0  0  0
    2.7262   -5.5964    4.8315 C   0  0  0  0  0  0  0  0  0  0  0  0
    3.2147   -4.3181    4.9666 C   0  0  0  0  0  0  0  0  0  0  0  0
    3.0665   -3.5351    3.7725 C   0  0  0  0  0  0  0  0  0  0  0  0
    3.4320   -2.1953    3.4980 C   0  0  0  0  0  0  0  0  0  0  0  0
    2.3406   -1.7891   -0.0202 C   0  0  0  0  0  0  0  0  0  0  0  0
    2.6985   -0.4518   -0.3177 C   0  0  0  0  0  0  0  0  0  0  0  0
    0.3592   -0.4303   -2.8528 C   0  0  0  0  0  0  0  0  0  0  0  0
   -0.4451    0.3776   -2.0124 C   0  0  0  0  0  0  0  0  0  0  0  0
   -1.8383    0.5619   -2.1830 C   0  0  0  0  0  0  0  0  0  0  0  0
   -3.1736   -3.3971    7.5591 H   0  0  0  0  0  0  0  0  0  0  0  0
   -1.8894   -1.1076    7.6776 H   0  0  0  0  0  0  0  0  0  0  0  0
   -1.1855    0.9626    5.8571 H   0  0  0  0  0  0  0  0  0  0  0  0
   -3.5132   -1.8052    2.4434 H   0  0  0  0  0  0  0  0  0  0  0  0
   -2.9903   -0.1264    0.7499 H   0  0  0  0  0  0  0  0  0  0  0  0
   -0.6724    2.6339    4.1295 H   0  0  0  0  0  0  0  0  0  0  0  0
   -0.1336    4.2948    2.4634 H   0  0  0  0  0  0  0  0  0  0  0  0
    0.4343    6.1297    0.4137 H   0  0  0  0  0  0  0  0  0  0  0  0
   -0.0554    6.3495   -2.1572 H   0  0  0  0  0  0  0  0  0  0  0  0
   -4.4820    2.9883   -0.0050 H   0  0  0  0  0  0  0  0  0  0  0  0
   -6.8756    3.1368   -0.4676 H   0  0  0  0  0  0  0  0  0  0  0  0
   -7.8794    1.8186   -2.3150 H   0  0  0  0  0  0  0  0  0  0  0  0
   -6.4636    0.3564   -3.6933 H   0  0  0  0  0  0  0  0  0  0  0  0
   -4.2990   -0.5704   -4.2491 H   0  0  0  0  0  0  0  0  0  0  0  0
   -2.1680   -1.5091   -4.8749 H   0  0  0  0  0  0  0  0  0  0  0  0
   -0.0580   -2.4525   -5.5626 H   0  0  0  0  0  0  0  0  0  0  0  0
    2.0257   -3.4286   -6.3099 H   0  0  0  0  0  0  0  0  0  0  0  0
    4.4593   -3.7110   -6.0974 H   0  0  0  0  0  0  0  0  0  0  0  0
    5.6935   -2.5282   -4.2984 H   0  0  0  0  0  0  0  0  0  0  0  0
    4.5039   -1.0816   -2.7304 H   0  0  0  0  0  0  0  0  0  0  0  0
    3.4590    4.7742   -3.0379 H   0  0  0  0  0  0  0  0  0  0  0  0
    4.1872    4.3515   -0.5496 H   0  0  0  0  0  0  0  0  0  0  0  0
    4.1315    2.2131    1.2726 H   0  0  0  0  0  0  0  0  0  0  0  0
    4.0141    0.3037    2.7448 H   0  0  0  0  0  0  0  0  0  0  0  0
    1.7273   -4.3098    0.7194 H   0  0  0  0  0  0  0  0  0  0  0  0
    2.7145   -6.3830    5.5735 H   0  0  0  0  0  0  0  0  0  0  0  0
    3.6619   -3.9508    5.8820 H   0  0  0  0  0  0  0  0  0  0  0  0
    3.9073   -1.6114    4.2827 H   0  0  0  0  0  0  0  0  0  0  0  0
    1.8603   -2.3952   -0.7881 H   0  0  0  0  0  0  0  0  0  0  0  0
    0.0409    0.9021   -1.1918 H   0  0  0  0  0  0  0  0  0  0  0  0
  1  2  4  0
  2  3  4  0
  3  4  4  0
  4  5  4  0
  5  6  4  0
  6  7  4  0
  7  8  4  0
  8  9  4  0
  6 10  4  0
 10 11  4  0
 11 12  4  0
 12 13  4  0
 12 14  4  0
 14 15  4  0
 15 16  4  0
 16 17  4  0
 17 18  4  0
 18 19  4  0
 19 20  4  0
 20 21  1  0
 21 22  4  0
 22 23  4  0
 23 24  4  0
 24 25  4  0
 25 26  4  0
 26 27  4  0
 27 28  4  0
 28 29  4  0
 29 30  4  0
 30 31  4  0
 31 32  4  0
 32 33  4  0
 33 34  4  0
 34 35  4  0
 35 36  4  0
 36 37  4  0
 37 38  4  0
 38 39  4  0
 39 40  1  0
 40 41  4  0
 41 42  4  0
 42 43  4  0
 43 44  4  0
 44 45  4  0
 45 46  4  0
 46 47  4  0
 47 48  4  0
 48 49  4  0
 49 50  4  0
 50 51  4  0
 51 52  4  0
 52 53  4  0
 53 54  4  0
 54 55  4  0
 55 56  4  0
 56 57  4  0
 50 58  4  0
 58 59  4  0
 39 60  4  0
 60 61  4  0
 61 62  4  0
  9  1  4  0
 20 11  4  0
 62 21  4  0
  8  3  4  0
 19 15  4  0
 27 22  4  0
 62 29  4  0
 13  5  4  0
 60 31  4  0
 38 33  4  0
 59 40  4  0
 45 41  4  0
 59 47  4  0
 57 49  4  0
 56 52  4  0
  1 63  1  0
  2 64  1  0
  4 65  1  0
  7 66  1  0
 10 67  1  0
 13 68  1  0
 14 69  1  0
 16 70  1  0
 17 71  1  0
 23 72  1  0
 24 73  1  0
 25 74  1  0
 26 75  1  0
 28 76  1  0
 30 77  1  0
 32 78  1  0
 34 79  1  0
 35 80  1  0
 36 81  1  0
 37 82  1  0
 43 83  1  0
 44 84  1  0
 46 85  1  0
 48 86  1  0
 51 87  1  0
 54 88  1  0
 55 89  1  0
 57 90  1  0
 58 91  1  0
 61 92  1  0
M  END
