
     RDKit          3D

 92106  0  0  0  0  0  0  0  0999 V2000
   10.4750    2.5910   -0.5519 C   0  0  0  0  0  0  0  0  0  0  0  0
    9.6497    1.5279   -0.2700 C   0  0  0  0  0  0  0  0  0  0  0  0
    8.2573    1.8691   -0.3398 C   0  0  0  0  0  0  0  0  0  0  0  0
    7.1033    1.0785   -0.1248 C   0  0  0  0  0  0  0  0  0  0  0  0
    5.8132    1.6243   -0.2553 C   0  0  0  0  0  0  0  0  0  0  0  0
    4.6622    0.8370   -0.0661 C   0  0  0  0  0  0  0  0  0  0  0  0
    3.3388    1.3161   -0.2498 C   0  0  0  0  0  0  0  0  0  0  0  0
    3.2299    2.7086   -0.4357 C   0  0  0  0  0  0  0  0  0  0  0  0
    4.3683    3.5030   -0.6641 C   0  0  0  0  0  0  0  0  0  0  0  0
    5.6626    2.9730   -0.5905 C   0  0  0  0  0  0  0  0  0  0  0  0
    6.7965    3.7752   -0.8065 C   0  0  0  0  0  0  0  0  0  0  0  0
    8.0807    3.2103   -0.6806 C   0  0  0  0  0  0  0  0  0  0  0  0
    9.5929    4.0074   -0.9022 S   0  0  0  0  0  0  0  0  0  0  0  0
    1.9916    3.3288   -0.3229 C   0  0  0  0  0  0  0  0  0  0  0  0
    0.9805    2.5830    0.2895 C   0  0  0  0  0  0  0  0  0  0  0  0
   -0.4812    3.2221    0.9426 S   0  0  0  0  0  0  0  0  0  0  0  0
   -0.8269    1.7644    1.7390 C   0  0  0  0  0  0  0  0  0  0  0  0
    0.0544    0.7719    1.3842 C   0  0  0  0  0  0  0  0  0  0  0  0
    1.0742    1.1954    0.4483 C   0  0  0  0  0  0  0  0  0  0  0  0
    2.1474    0.4973   -0.1960 C   0  0  0  0  0  0  0  0  0  0  0  0
    2.0735   -0.9987   -0.5607 C   0  0  0  0  0  0  0  0  0  0  0  0
    3.1679   -1.6947   -1.1773 C   0  0  0  0  0  0  0  0  0  0  0  0
    4.0841   -1.1258   -2.1011 C   0  0  0  0  0  0  0  0  0  0  0  0
    5.1970   -1.8181   -2.5880 C   0  0  0  0  0  0  0  0  0  0  0  0
    5.4152   -3.1281   -2.1952 C   0  0  0  0  0  0  0  0  0  0  0  0
    4.4798   -3.7590   -1.3808 C   0  0  0  0  0  0  0  0  0  0  0  0
    3.3379   -3.0745   -0.9263 C   0  0  0  0  0  0  0  0  0  0  0  0
    2.3237   -3.7816   -0.2917 C   0  0  0  0  0  0  0  0  0  0  0  0
    1.0677   -3.1969   -0.1630 C   0  0  0  0  0  0  0  0  0  0  0  0
   -0.0366   -4.0207    0.0972 C   0  0  0  0  0  0  0  0  0  0  0  0
   -1.3512   -3.5565   -0.0345 C   0  0  0  0  0  0  0  0  0  0  0  0
   -2.4192   -4.4434    0.1479 C   0  0  0  0  0  0  0  0  0  0  0  0
   -3.7445   -4.0608   -0.0790 C   0  0  0  0  0  0  0  0  0  0  0  0
   -4.7818   -4.9947    0.0914 C   0  0  0  0  0  0  0  0  0  0  0  0
   -6.1087   -4.6480   -0.1503 C   0  0  0  0  0  0  0  0  0  0  0  0
   -6.4137   -3.3631   -0.5717 C   0  0  0  0  0  0  0  0  0  0  0  0
   -5.3908   -2.4274   -0.7417 C   0  0  0  0  0  0  0  0  0  0  0  0
   -4.0303   -2.7419   -0.4922 C   0  0  0  0  0  0  0  0  0  0  0  0
   -2.9486   -1.8085   -0.6356 C   0  0  0  0  0  0  0  0  0  0  0  0
   -3.2433   -0.4017   -1.0219 C   0  0  0  0  0  0  0  0  0  0  0  0
   -3.0131   -0.0293   -2.3832 C   0  0  0  0  0  0  0  0  0  0  0  0
   -2.5350   -0.7911   -3.5124 C   0  0  0  0  0  0  0  0  0  0  0  0
   -2.4360   -0.0511   -4.6660 C   0  0  0  0  0  0  0  0  0  0  0  0
   -2.9182    1.5625   -4.4248 S   0  0  0  0  0  0  0  0  0  0  0  0
   -3.2731    1.2877   -2.7601 C   0  0  0  0  0  0  0  0  0  0  0  0
   -3.7669    2.2362   -1.8477 C   0  0  0  0  0  0  0  0  0  0  0  0
   -4.0215    1.8656   -0.5213 C   0  0  0  0  0  0  0  0  0  0  0  0
   -3.7640    0.5520   -0.0894 C   0  0  0  0  0  0  0  0  0  0  0  0
   -4.0485    0.2443    1.2637 C   0  0  0  0  0  0  0  0  0  0  0  0
   -4.5732    1.1880    2.1632 C   0  0  0  0  0  0  0  0  0  0  0  0
   -4.8467    0.8481    3.5005 C   0  0  0  0  0  0  0  0  0  0  0  0
   -5.3626    1.8041    4.4077 C   0  0  0  0  0  0  0  0  0  0  0  0
   -5.7092    1.6829    5.7954 C   0  0  0  0  0  0  0  0  0  0  0  0
   -6.1826    2.8569    6.3324 C   0  0  0  0  0  0  0  0  0  0  0  0
   -6.2180    4.1149    5.1820 S   0  0  0  0  0  0  0  0  0  0  0  0
   -5.5947    3.0969    3.9385 C   0  0  0  0  0  0  0  0  0  0  0  0
   -5.3294    3.4547    2.6022 C   0  0  0  0  0  0  0  0  0  0  0  0
   -4.8169    2.4928    1.7156 C   0  0  0  0  0  0  0  0  0  0  0  0
   -4.5373    2.8141    0.3792 C   0  0  0  0  0  0  0  0  0  0  0  0
   -1.5908   -2.2249   -0.4096 C   0  0  0  0  0  0  0  0  0  0  0  0
   -0.4439   -1.3898   -0.5616 C   0  0  0  0  0  0  0  0  0  0  0  0
    0.9048   -1.8168   -0.3943 C   0  0  0  0  0  0  0  0  0  0  0  0
   11.5561    2.6035   -0.5684 H   0  0  0  0  0  0  0  0  0  0  0  0
   10.0213    0.5413   -0.0220 H   0  0  0  0  0  0  0  0  0  0  0  0
    7.2260    0.0292    0.1352 H   0  0  0  0  0  0  0  0  0  0  0  0
    4.8049   -0.1960    0.2508 H   0  0  0  0  0  0  0  0  0  0  0  0
    4.2466    4.5691   -0.8530 H   0  0  0  0  0  0  0  0  0  0  0  0
    6.6934    4.8261   -1.0635 H   0  0  0  0  0  0  0  0  0  0  0  0
    1.8762    4.4009   -0.4524 H   0  0  0  0  0  0  0  0  0  0  0  0
   -1.6655    1.6938    2.4160 H   0  0  0  0  0  0  0  0  0  0  0  0
   -0.0156   -0.2266    1.7979 H   0  0  0  0  0  0  0  0  0  0  0  0
    3.9258   -0.1118   -2.4668 H   0  0  0  0  0  0  0  0  0  0  0  0
    5.8847   -1.3254   -3.2704 H   0  0  0  0  0  0  0  0  0  0  0  0
    6.2805   -3.6738   -2.5609 H   0  0  0  0  0  0  0  0  0  0  0  0
    4.6217   -4.8121   -1.1463 H   0  0  0  0  0  0  0  0  0  0  0  0
    2.4497   -4.8451   -0.0985 H   0  0  0  0  0  0  0  0  0  0  0  0
    0.1298   -5.0747    0.3187 H   0  0  0  0  0  0  0  0  0  0  0  0
   -2.2107   -5.4706    0.4453 H   0  0  0  0  0  0  0  0  0  0  0  0
   -4.5610   -6.0110    0.4120 H   0  0  0  0  0  0  0  0  0  0  0  0
   -6.8989   -5.3815   -0.0154 H   0  0  0  0  0  0  0  0  0  0  0  0
   -7.4443   -3.0812   -0.7706 H   0  0  0  0  0  0  0  0  0  0  0  0
   -5.6755   -1.4325   -1.0795 H   0  0  0  0  0  0  0  0  0  0  0  0
   -2.2704   -1.8411   -3.4682 H   0  0  0  0  0  0  0  0  0  0  0  0
   -2.1017   -0.3844   -5.6388 H   0  0  0  0  0  0  0  0  0  0  0  0
   -3.9553    3.2528   -2.1850 H   0  0  0  0  0  0  0  0  0  0  0  0
   -3.8548   -0.7619    1.6334 H   0  0  0  0  0  0  0  0  0  0  0  0
   -4.6610   -0.1638    3.8542 H   0  0  0  0  0  0  0  0  0  0  0  0
   -5.6121    0.7678    6.3669 H   0  0  0  0  0  0  0  0  0  0  0  0
   -6.5105    3.0369    7.3472 H   0  0  0  0  0  0  0  0  0  0  0  0
   -5.5217    4.4712    2.2693 H   0  0  0  0  0  0  0  0  0  0  0  0
   -4.7252    3.8293    0.0311 H   0  0  0  0  0  0  0  0  0  0  0  0
   -0.6042   -0.3670   -0.9012 H   0  0  0  0  0  0  0  0  0  0  0  0
  1  2  4  0
  2  3  4  0
  3  4  4  0
  4  5  4  0
  5  6  4  0
  6  7  4  0
  7  8  4  0
  8  9  4  0
  9 10  4  0
 10 11  4  0
 11 12  4  0
 12 13  4  0
  8 14  4  0
 14 15  4  0
 15 16  4  0
 16 17  4  0
 17 18  4  0
 18 19  4  0
 19 20  4  0
 20 21  1  0
 21 22  4  0
 22 23  4  0
 23 24  4  0
 24 25  4  0
 25 26  4  0
 26 27  4  0
 27 28  4  0
 28 29  4  0
 29 30  4  0
 30 31  4  0
 31 32  4  0
 32 33  4  0
 33 34  4  0
 34 35  4  0
 35 36  4  0
 36 37  4  0
 37 38  4  0
 38 39  4  0
 39 40  1  0
 40 41  4  0
 41 42  4  0
 42 43  4  0
 43 44  4  0
 44 45  4  0
 45 46  4  0
 46 47  4  0
 47 48  4  0
 48 49  4  0
 49 50  4  0
 50 51  4  0
 51 52  4  0
 52 53  4  0
 53 54  4  0
 54 55  4  0
 55 56  4  0
 56 57  4  0
 57 58  4  0
 58 59  4  0
 39 60  4  0
 60 61  4  0
 61 62  4  0
 13  1  4  0
 19 15  4  0
 62 21  4  0
 12  3  4  0
 27 22  4  0
 62 29  4  0
 10  5  4  0
 60 31  4  0
 20  7  4  0
 38 33  4  0
 48 40  4  0
 58 50  4  0
 45 41  4  0
 59 47  4  0
 56 52  4  0
  1 63  1  0
  2 64  1  0
  4 65  1  0
  6 66  1  0
  9 67  1  0
 11 68  1  0
 14 69  1  0
 17 70  1  0
 18 71  1  0
 23 72  1  0
 24 73  1  0
 25 74  1  0
 26 75  1  0
 28 76  1  0
 30 77  1  0
 32 78  1  0
 34 79  1  0
 35 80  1  0
 36 81  1  0
 37 82  1  0
 42 83  1  0
 43 84  1  0
 46 85  1  0
 49 86  1  0
 51 87  1  0
 53 88  1  0
 54 89  1  0
 57 90  1  0
 59 91  1  0
 61 92  1  0
M  END
