
     RDKit          3D

 92106  0  0  0  0  0  0  0  0999 V2000
   -3.0786    8.6880    2.8010 C   0  0  0  0  0  0  0  0  0  0  0  0
   -2.8287    7.5537    3.5370 C   0  0  0  0  0  0  0  0  0  0  0  0
   -2.8506    6.3577    2.7434 C   0  0  0  0  0  0  0  0  0  0  0  0
   -2.6458    5.0054    3.1089 C   0  0  0  0  0  0  0  0  0  0  0  0
   -2.7138    3.9744    2.1540 C   0  0  0  0  0  0  0  0  0  0  0  0
   -2.5107    2.6323    2.5162 C   0  0  0  0  0  0  0  0  0  0  0  0
   -2.5763    1.5964    1.5693 C   0  0  0  0  0  0  0  0  0  0  0  0
   -2.8514    1.9097    0.2280 C   0  0  0  0  0  0  0  0  0  0  0  0
   -3.0557    3.2518   -0.1330 C   0  0  0  0  0  0  0  0  0  0  0  0
   -2.9898    4.2881    0.8129 C   0  0  0  0  0  0  0  0  0  0  0  0
   -3.1955    5.6250    0.4344 C   0  0  0  0  0  0  0  0  0  0  0  0
   -3.1231    6.6429    1.4054 C   0  0  0  0  0  0  0  0  0  0  0  0
   -3.3418    8.3342    1.1543 S   0  0  0  0  0  0  0  0  0  0  0  0
   -2.9199    0.8850   -0.7306 C   0  0  0  0  0  0  0  0  0  0  0  0
   -2.7151   -0.4518   -0.3371 C   0  0  0  0  0  0  0  0  0  0  0  0
   -2.7643   -1.8478   -1.3454 S   0  0  0  0  0  0  0  0  0  0  0  0
   -2.4154   -2.8957   -0.0433 C   0  0  0  0  0  0  0  0  0  0  0  0
   -2.3036   -4.3462   -0.2780 C   0  0  0  0  0  0  0  0  0  0  0  0
   -3.4545   -5.1779   -0.1078 C   0  0  0  0  0  0  0  0  0  0  0  0
   -4.7380   -4.7012    0.2647 C   0  0  0  0  0  0  0  0  0  0  0  0
   -5.8306   -5.5580    0.4175 C   0  0  0  0  0  0  0  0  0  0  0  0
   -5.6743   -6.9191    0.2026 C   0  0  0  0  0  0  0  0  0  0  0  0
   -4.4269   -7.4194   -0.1646 C   0  0  0  0  0  0  0  0  0  0  0  0
   -3.3193   -6.5673   -0.3214 C   0  0  0  0  0  0  0  0  0  0  0  0
   -2.0758   -7.0971   -0.6897 C   0  0  0  0  0  0  0  0  0  0  0  0
   -0.9426   -6.2884   -0.8534 C   0  0  0  0  0  0  0  0  0  0  0  0
    0.2870   -6.8607   -1.2192 C   0  0  0  0  0  0  0  0  0  0  0  0
    1.4482   -6.0899   -1.3933 C   0  0  0  0  0  0  0  0  0  0  0  0
    2.6549   -6.7041   -1.7567 C   0  0  0  0  0  0  0  0  0  0  0  0
    3.8356   -5.9719   -1.9371 C   0  0  0  0  0  0  0  0  0  0  0  0
    5.0241   -6.6320   -2.2958 C   0  0  0  0  0  0  0  0  0  0  0  0
    6.2119   -5.9278   -2.4806 C   0  0  0  0  0  0  0  0  0  0  0  0
    6.2264   -4.5517   -2.3089 C   0  0  0  0  0  0  0  0  0  0  0  0
    5.0523   -3.8843   -1.9530 C   0  0  0  0  0  0  0  0  0  0  0  0
    3.8266   -4.5713   -1.7578 C   0  0  0  0  0  0  0  0  0  0  0  0
    2.5974   -3.9375   -1.3953 C   0  0  0  0  0  0  0  0  0  0  0  0
    2.5635   -2.4771   -1.2032 C   0  0  0  0  0  0  0  0  0  0  0  0
    2.8021   -1.7543   -0.0542 C   0  0  0  0  0  0  0  0  0  0  0  0
    2.6668   -0.3386   -0.2444 C   0  0  0  0  0  0  0  0  0  0  0  0
    2.8251    0.7324    0.6675 C   0  0  0  0  0  0  0  0  0  0  0  0
    2.6397    2.0668    0.2625 C   0  0  0  0  0  0  0  0  0  0  0  0
    2.2926    2.3455   -1.0697 C   0  0  0  0  0  0  0  0  0  0  0  0
    2.1097    3.6812   -1.4643 C   0  0  0  0  0  0  0  0  0  0  0  0
    2.2654    4.7453   -0.5604 C   0  0  0  0  0  0  0  0  0  0  0  0
    2.0790    6.0757   -0.9715 C   0  0  0  0  0  0  0  0  0  0  0  0
    2.2422    7.1214   -0.0418 C   0  0  0  0  0  0  0  0  0  0  0  0
    2.0618    8.8104   -0.3366 S   0  0  0  0  0  0  0  0  0  0  0  0
    2.4355    9.2077    1.2786 C   0  0  0  0  0  0  0  0  0  0  0  0
    2.6940    8.0896    2.0363 C   0  0  0  0  0  0  0  0  0  0  0  0
    2.5865    6.8703    1.2863 C   0  0  0  0  0  0  0  0  0  0  0  0
    2.7708    5.5245    1.6850 C   0  0  0  0  0  0  0  0  0  0  0  0
    2.6126    4.4660    0.7717 C   0  0  0  0  0  0  0  0  0  0  0  0
    2.7955    3.1303    1.1672 C   0  0  0  0  0  0  0  0  0  0  0  0
    2.1336    1.2934   -1.9867 C   0  0  0  0  0  0  0  0  0  0  0  0
    2.3229   -0.0356   -1.5612 C   0  0  0  0  0  0  0  0  0  0  0  0
    2.1793   -1.4594   -2.5195 S   0  0  0  0  0  0  0  0  0  0  0  0
    1.4010   -4.6989   -1.2021 C   0  0  0  0  0  0  0  0  0  0  0  0
    0.1496   -4.1427   -0.8262 C   0  0  0  0  0  0  0  0  0  0  0  0
   -1.0373   -4.9018   -0.6483 C   0  0  0  0  0  0  0  0  0  0  0  0
   -2.2665   -2.2043    1.1397 C   0  0  0  0  0  0  0  0  0  0  0  0
   -2.4393   -0.7883    0.9875 C   0  0  0  0  0  0  0  0  0  0  0  0
   -2.3717    0.2553    1.9415 C   0  0  0  0  0  0  0  0  0  0  0  0
   -3.1192    9.7099    3.1524 H   0  0  0  0  0  0  0  0  0  0  0  0
   -2.6367    7.5728    4.6028 H   0  0  0  0  0  0  0  0  0  0  0  0
   -2.4327    4.7713    4.1495 H   0  0  0  0  0  0  0  0  0  0  0  0
   -2.2971    2.3889    3.5558 H   0  0  0  0  0  0  0  0  0  0  0  0
   -3.2713    3.4952   -1.1725 H   0  0  0  0  0  0  0  0  0  0  0  0
   -3.4097    5.8833   -0.5995 H   0  0  0  0  0  0  0  0  0  0  0  0
   -3.1284    1.1116   -1.7729 H   0  0  0  0  0  0  0  0  0  0  0  0
   -4.9044   -3.6399    0.4390 H   0  0  0  0  0  0  0  0  0  0  0  0
   -6.7999   -5.1566    0.7017 H   0  0  0  0  0  0  0  0  0  0  0  0
   -6.5198   -7.5919    0.3183 H   0  0  0  0  0  0  0  0  0  0  0  0
   -4.3252   -8.4903   -0.3296 H   0  0  0  0  0  0  0  0  0  0  0  0
   -1.9875   -8.1708   -0.8526 H   0  0  0  0  0  0  0  0  0  0  0  0
    0.3416   -7.9379   -1.3740 H   0  0  0  0  0  0  0  0  0  0  0  0
    2.6764   -7.7838   -1.9017 H   0  0  0  0  0  0  0  0  0  0  0  0
    5.0327   -7.7111   -2.4358 H   0  0  0  0  0  0  0  0  0  0  0  0
    7.1210   -6.4539   -2.7588 H   0  0  0  0  0  0  0  0  0  0  0  0
    7.1467   -3.9915   -2.4522 H   0  0  0  0  0  0  0  0  0  0  0  0
    5.1058   -2.8042   -1.8307 H   0  0  0  0  0  0  0  0  0  0  0  0
    3.0605   -2.2176    0.8904 H   0  0  0  0  0  0  0  0  0  0  0  0
    3.0934    0.5074    1.6972 H   0  0  0  0  0  0  0  0  0  0  0  0
    1.8400    3.8967   -2.4973 H   0  0  0  0  0  0  0  0  0  0  0  0
    1.8101    6.3073   -1.9989 H   0  0  0  0  0  0  0  0  0  0  0  0
    2.4482   10.2410    1.5971 H   0  0  0  0  0  0  0  0  0  0  0  0
    2.9507    8.1355    3.0874 H   0  0  0  0  0  0  0  0  0  0  0  0
    3.0393    5.3174    2.7184 H   0  0  0  0  0  0  0  0  0  0  0  0
    3.0645    2.9142    2.2000 H   0  0  0  0  0  0  0  0  0  0  0  0
    1.8659    1.4924   -3.0211 H   0  0  0  0  0  0  0  0  0  0  0  0
    0.0958   -3.0665   -0.6693 H   0  0  0  0  0  0  0  0  0  0  0  0
   -2.0401   -2.6907    2.0810 H   0  0  0  0  0  0  0  0  0  0  0  0
   -2.1573    0.0037    2.9777 H   0  0  0  0  0  0  0  0  0  0  0  0
  1  2  4  0
  2  3  4  0
  3  4  4  0
  4  5  4  0
  5  6  4  0
  6  7  4  0
  7  8  4  0
  8  9  4  0
  9 10  4  0
 10 11  4  0
 11 12  4  0
 12 13  4  0
  8 14  4  0
 14 15  4  0
 15 16  4  0
 16 17  4  0
 17 18  1  0
 18 19  4  0
 19 20  4  0
 20 21  4  0
 21 22  4  0
 22 23  4  0
 23 24  4  0
 24 25  4  0
 25 26  4  0
 26 27  4  0
 27 28  4  0
 28 29  4  0
 29 30  4  0
 30 31  4  0
 31 32  4  0
 32 33  4  0
 33 34  4  0
 34 35  4  0
 35 36  4  0
 36 37  1  0
 37 38  4  0
 38 39  4  0
 39 40  4  0
 40 41  4  0
 41 42  4  0
 42 43  4  0
 43 44  4  0
 44 45  4  0
 45 46  4  0
 46 47  4  0
 47 48  4  0
 48 49  4  0
 49 50  4  0
 50 51  4  0
 51 52  4  0
 52 53  4  0
 42 54  4  0
 54 55  4  0
 55 56  4  0
 36 57  4  0
 57 58  4  0
 58 59  4  0
 17 60  4  0
 60 61  4  0
 61 62  4  0
 13  1  4  0
 61 15  4  0
 12  3  4  0
 59 18  4  0
 10  5  4  0
 24 19  4  0
 59 26  4  0
 62  7  4  0
 57 28  4  0
 35 30  4  0
 56 37  4  0
 55 39  4  0
 53 41  4  0
 52 44  4  0
 50 46  4  0
  1 63  1  0
  2 64  1  0
  4 65  1  0
  6 66  1  0
  9 67  1  0
 11 68  1  0
 14 69  1  0
 20 70  1  0
 21 71  1  0
 22 72  1  0
 23 73  1  0
 25 74  1  0
 27 75  1  0
 29 76  1  0
 31 77  1  0
 32 78  1  0
 33 79  1  0
 34 80  1  0
 38 81  1  0
 40 82  1  0
 43 83  1  0
 45 84  1  0
 48 85  1  0
 49 86  1  0
 51 87  1  0
 53 88  1  0
 54 89  1  0
 58 90  1  0
 60 91  1  0
 62 92  1  0
M  END
