
     RDKit          3D

 84 96  0  0  0  0  0  0  0  0999 V2000
    2.4692    3.9344   -2.8478 C   0  0  0  0  0  0  0  0  0  0  0  0
    2.5059    4.5794   -1.6134 C   0  0  0  0  0  0  0  0  0  0  0  0
    2.5299    3.8403   -0.4217 C   0  0  0  0  0  0  0  0  0  0  0  0
    2.5213    2.4257   -0.4758 C   0  0  0  0  0  0  0  0  0  0  0  0
    2.4810    1.7782   -1.7287 C   0  0  0  0  0  0  0  0  0  0  0  0
    2.4543    2.5424   -2.9048 C   0  0  0  0  0  0  0  0  0  0  0  0
    2.4596    0.3808   -1.7742 C   0  0  0  0  0  0  0  0  0  0  0  0
    2.4866   -0.3978   -0.6005 C   0  0  0  0  0  0  0  0  0  0  0  0
    2.3927   -1.8761   -0.7472 C   0  0  0  0  0  0  0  0  0  0  0  0
    3.5610   -2.6490   -1.0294 C   0  0  0  0  0  0  0  0  0  0  0  0
    4.8612   -2.0978   -1.1436 C   0  0  0  0  0  0  0  0  0  0  0  0
    5.9771   -2.8894   -1.4228 C   0  0  0  0  0  0  0  0  0  0  0  0
    5.8265   -4.2575   -1.5953 C   0  0  0  0  0  0  0  0  0  0  0  0
    4.5613   -4.8307   -1.4848 C   0  0  0  0  0  0  0  0  0  0  0  0
    3.4300   -4.0455   -1.2023 C   0  0  0  0  0  0  0  0  0  0  0  0
    2.1693   -4.6472   -1.0896 C   0  0  0  0  0  0  0  0  0  0  0  0
    1.0176   -3.9050   -0.7969 C   0  0  0  0  0  0  0  0  0  0  0  0
   -0.2323   -4.5386   -0.6756 C   0  0  0  0  0  0  0  0  0  0  0  0
   -1.4018   -3.8261   -0.3551 C   0  0  0  0  0  0  0  0  0  0  0  0
   -2.6305   -4.4876   -0.2284 C   0  0  0  0  0  0  0  0  0  0  0  0
   -3.8076   -3.8056    0.1092 C   0  0  0  0  0  0  0  0  0  0  0  0
   -5.0199   -4.5078    0.2235 C   0  0  0  0  0  0  0  0  0  0  0  0
   -6.2017   -3.8532    0.5648 C   0  0  0  0  0  0  0  0  0  0  0  0
   -6.1863   -2.4863    0.7998 C   0  0  0  0  0  0  0  0  0  0  0  0
   -4.9886   -1.7772    0.6904 C   0  0  0  0  0  0  0  0  0  0  0  0
   -3.7714   -2.4119    0.3404 C   0  0  0  0  0  0  0  0  0  0  0  0
   -2.5263   -1.7234    0.2109 C   0  0  0  0  0  0  0  0  0  0  0  0
   -2.4418   -0.2632    0.4840 C   0  0  0  0  0  0  0  0  0  0  0  0
   -2.0574    0.1419    1.7778 C   0  0  0  0  0  0  0  0  0  0  0  0
   -1.8967    1.4909    2.1084 C   0  0  0  0  0  0  0  0  0  0  0  0
   -1.4990    1.8797    3.3965 C   0  0  0  0  0  0  0  0  0  0  0  0
   -1.3437    3.2268    3.7157 C   0  0  0  0  0  0  0  0  0  0  0  0
   -1.5804    4.2016    2.7487 C   0  0  0  0  0  0  0  0  0  0  0  0
   -1.9749    3.8408    1.4513 C   0  0  0  0  0  0  0  0  0  0  0  0
   -2.1347    2.4728    1.1242 C   0  0  0  0  0  0  0  0  0  0  0  0
   -2.5292    2.0889   -0.1839 C   0  0  0  0  0  0  0  0  0  0  0  0
   -2.7602    3.0912   -1.1588 C   0  0  0  0  0  0  0  0  0  0  0  0
   -3.1446    2.7243   -2.4543 C   0  0  0  0  0  0  0  0  0  0  0  0
   -3.2978    1.3845   -2.7922 C   0  0  0  0  0  0  0  0  0  0  0  0
   -3.0695    0.3960   -1.8364 C   0  0  0  0  0  0  0  0  0  0  0  0
   -2.6851    0.7178   -0.5154 C   0  0  0  0  0  0  0  0  0  0  0  0
   -2.6002    4.4401   -0.8172 C   0  0  0  0  0  0  0  0  0  0  0  0
   -2.2136    4.8111    0.4714 C   0  0  0  0  0  0  0  0  0  0  0  0
   -1.3397   -2.4380   -0.1517 C   0  0  0  0  0  0  0  0  0  0  0  0
   -0.0774   -1.8189   -0.3148 C   0  0  0  0  0  0  0  0  0  0  0  0
    1.1165   -2.5150   -0.6214 C   0  0  0  0  0  0  0  0  0  0  0  0
    2.5426    0.2447    0.6679 C   0  0  0  0  0  0  0  0  0  0  0  0
    2.5747   -0.4604    1.8922 C   0  0  0  0  0  0  0  0  0  0  0  0
    2.5976    0.2024    3.1184 C   0  0  0  0  0  0  0  0  0  0  0  0
    2.5945    1.5919    3.1551 C   0  0  0  0  0  0  0  0  0  0  0  0
    2.5743    2.3339    1.9682 C   0  0  0  0  0  0  0  0  0  0  0  0
    2.5489    1.6627    0.7199 C   0  0  0  0  0  0  0  0  0  0  0  0
    2.5764    3.7341    2.0027 C   0  0  0  0  0  0  0  0  0  0  0  0
    2.5589    4.4786    0.8228 C   0  0  0  0  0  0  0  0  0  0  0  0
    2.4485    4.5162   -3.7655 H   0  0  0  0  0  0  0  0  0  0  0  0
    2.5132    5.6667   -1.5883 H   0  0  0  0  0  0  0  0  0  0  0  0
    2.4196    2.0557   -3.8771 H   0  0  0  0  0  0  0  0  0  0  0  0
    2.4041   -0.1245   -2.7378 H   0  0  0  0  0  0  0  0  0  0  0  0
    5.0219   -1.0295   -1.0083 H   0  0  0  0  0  0  0  0  0  0  0  0
    6.9597   -2.4320   -1.5023 H   0  0  0  0  0  0  0  0  0  0  0  0
    6.6904   -4.8795   -1.8126 H   0  0  0  0  0  0  0  0  0  0  0  0
    4.4644   -5.9059   -1.6201 H   0  0  0  0  0  0  0  0  0  0  0  0
    2.0836   -5.7243   -1.2257 H   0  0  0  0  0  0  0  0  0  0  0  0
   -0.2946   -5.6160   -0.8236 H   0  0  0  0  0  0  0  0  0  0  0  0
   -2.6715   -5.5633   -0.3934 H   0  0  0  0  0  0  0  0  0  0  0  0
   -5.0525   -5.5807    0.0458 H   0  0  0  0  0  0  0  0  0  0  0  0
   -7.1304   -4.4106    0.6470 H   0  0  0  0  0  0  0  0  0  0  0  0
   -7.1016   -1.9652    1.0671 H   0  0  0  0  0  0  0  0  0  0  0  0
   -5.0174   -0.7056    0.8805 H   0  0  0  0  0  0  0  0  0  0  0  0
   -1.8632   -0.6218    2.5301 H   0  0  0  0  0  0  0  0  0  0  0  0
   -1.3013    1.1305    4.1596 H   0  0  0  0  0  0  0  0  0  0  0  0
   -1.0355    3.5165    4.7165 H   0  0  0  0  0  0  0  0  0  0  0  0
   -1.4511    5.2482    3.0148 H   0  0  0  0  0  0  0  0  0  0  0  0
   -3.3253    3.4819   -3.2133 H   0  0  0  0  0  0  0  0  0  0  0  0
   -3.5932    1.1060   -3.8002 H   0  0  0  0  0  0  0  0  0  0  0  0
   -3.1942   -0.6422   -2.1381 H   0  0  0  0  0  0  0  0  0  0  0  0
   -2.7740    5.2191   -1.5562 H   0  0  0  0  0  0  0  0  0  0  0  0
   -2.0981    5.8677    0.7014 H   0  0  0  0  0  0  0  0  0  0  0  0
   -0.0200   -0.7389   -0.1854 H   0  0  0  0  0  0  0  0  0  0  0  0
    2.5745   -1.5486    1.9022 H   0  0  0  0  0  0  0  0  0  0  0  0
    2.6138   -0.3680    4.0429 H   0  0  0  0  0  0  0  0  0  0  0  0
    2.6055    2.0937    4.1196 H   0  0  0  0  0  0  0  0  0  0  0  0
    2.5870    4.2620    2.9536 H   0  0  0  0  0  0  0  0  0  0  0  0
    2.5614    5.5642    0.8868 H   0  0  0  0  0  0  0  0  0  0  0  0
  1  2  4  0
  2  3  4  0
  3  4  4  0
  4  5  4  0
  5  6  4  0
  5  7  4  0
  7  8  4  0
  8  9  1  0
  9 10  4  0
 10 11  4  0
 11 12  4  0
 12 13  4  0
 13 14  4  0
 14 15  4  0
 15 16  4  0
 16 17  4  0
 17 18  4  0
 18 19  4  0
 19 20  4  0
 20 21  4  0
 21 22  4  0
 22 23  4  0
 23 24  4  0
 24 25  4  0
 25 26  4  0
 26 27  4  0
 27 28  1  0
 28 29  4  0
 29 30  4  0
 30 31  4  0
 31 32  4  0
 32 33  4  0
 33 34  4  0
 34 35  4  0
 35 36  4  0
 36 37  4  0
 37 38  4  0
 38 39  4  0
 39 40  4  0
 40 41  4  0
 37 42  4  0
 42 43  4  0
 27 44  4  0
 44 45  4  0
 45 46  4  0
  8 47  4  0
 47 48  4  0
 48 49  4  0
 49 50  4  0
 50 51  4  0
 51 52  4  0
 51 53  4  0
 53 54  4  0
  6  1  4  0
 46  9  4  0
 52 47  4  0
 54  3  4  0
 52  4  4  0
 15 10  4  0
 46 17  4  0
 44 19  4  0
 26 21  4  0
 41 28  4  0
 35 30  4  0
 41 36  4  0
 43 34  4  0
  1 55  1  0
  2 56  1  0
  6 57  1  0
  7 58  1  0
 11 59  1  0
 12 60  1  0
 13 61  1  0
 14 62  1  0
 16 63  1  0
 18 64  1  0
 20 65  1  0
 22 66  1  0
 23 67  1  0
 24 68  1  0
 25 69  1  0
 29 70  1  0
 31 71  1  0
 32 72  1  0
 33 73  1  0
 38 74  1  0
 39 75  1  0
 40 76  1  0
 42 77  1  0
 43 78  1  0
 45 79  1  0
 48 80  1  0
 49 81  1  0
 50 82  1  0
 53 83  1  0
 54 84  1  0
M  END
