
     RDKit          3D

 84 96  0  0  0  0  0  0  0  0999 V2000
   -4.5474    3.6196    3.1917 C   0  0  0  0  0  0  0  0  0  0  0  0
   -3.8313    2.8543    4.1101 C   0  0  0  0  0  0  0  0  0  0  0  0
   -3.1978    1.6677    3.7118 C   0  0  0  0  0  0  0  0  0  0  0  0
   -3.2888    1.2453    2.3637 C   0  0  0  0  0  0  0  0  0  0  0  0
   -4.0175    2.0250    1.4376 C   0  0  0  0  0  0  0  0  0  0  0  0
   -4.6412    3.2070    1.8640 C   0  0  0  0  0  0  0  0  0  0  0  0
   -4.1033    1.6009    0.1096 C   0  0  0  0  0  0  0  0  0  0  0  0
   -3.4784    0.4215   -0.3024 C   0  0  0  0  0  0  0  0  0  0  0  0
   -2.7410   -0.3815    0.5937 C   0  0  0  0  0  0  0  0  0  0  0  0
   -2.0824   -1.5824    0.2033 C   0  0  0  0  0  0  0  0  0  0  0  0
   -2.0835   -2.0729   -1.2008 C   0  0  0  0  0  0  0  0  0  0  0  0
   -3.0823   -2.9975   -1.6390 C   0  0  0  0  0  0  0  0  0  0  0  0
   -4.1175   -3.4918   -0.8073 C   0  0  0  0  0  0  0  0  0  0  0  0
   -5.0747   -4.3946   -1.2756 C   0  0  0  0  0  0  0  0  0  0  0  0
   -5.0258   -4.8306   -2.5914 C   0  0  0  0  0  0  0  0  0  0  0  0
   -4.0215   -4.3612   -3.4355 C   0  0  0  0  0  0  0  0  0  0  0  0
   -3.0527   -3.4514   -2.9768 C   0  0  0  0  0  0  0  0  0  0  0  0
   -2.0560   -2.9899   -3.8470 C   0  0  0  0  0  0  0  0  0  0  0  0
   -1.0745   -2.0794   -3.4328 C   0  0  0  0  0  0  0  0  0  0  0  0
   -0.0930   -1.6289   -4.3327 C   0  0  0  0  0  0  0  0  0  0  0  0
    0.9016   -0.7100   -3.9543 C   0  0  0  0  0  0  0  0  0  0  0  0
    1.8613   -0.2793   -4.8798 C   0  0  0  0  0  0  0  0  0  0  0  0
    2.8619    0.6396   -4.5365 C   0  0  0  0  0  0  0  0  0  0  0  0
    3.8049    1.0442   -5.4976 C   0  0  0  0  0  0  0  0  0  0  0  0
    4.8091    1.9569   -5.1816 C   0  0  0  0  0  0  0  0  0  0  0  0
    4.8827    2.4782   -3.8984 C   0  0  0  0  0  0  0  0  0  0  0  0
    3.9516    2.0847   -2.9347 C   0  0  0  0  0  0  0  0  0  0  0  0
    2.9193    1.1576   -3.2232 C   0  0  0  0  0  0  0  0  0  0  0  0
    1.9487    0.7238   -2.2665 C   0  0  0  0  0  0  0  0  0  0  0  0
    1.9795    1.2534   -0.8768 C   0  0  0  0  0  0  0  0  0  0  0  0
    2.7524    0.6479    0.1547 C   0  0  0  0  0  0  0  0  0  0  0  0
    3.5712   -0.4822   -0.0555 C   0  0  0  0  0  0  0  0  0  0  0  0
    4.3180   -1.0524    0.9780 C   0  0  0  0  0  0  0  0  0  0  0  0
    4.2753   -0.5149    2.2667 C   0  0  0  0  0  0  0  0  0  0  0  0
    5.0228   -1.0762    3.3126 C   0  0  0  0  0  0  0  0  0  0  0  0
    4.9734   -0.5293    4.5934 C   0  0  0  0  0  0  0  0  0  0  0  0
    4.1748    0.5845    4.8452 C   0  0  0  0  0  0  0  0  0  0  0  0
    3.4136    1.1643    3.8193 C   0  0  0  0  0  0  0  0  0  0  0  0
    3.4631    0.6142    2.5157 C   0  0  0  0  0  0  0  0  0  0  0  0
    2.7026    1.1928    1.4641 C   0  0  0  0  0  0  0  0  0  0  0  0
    1.8898    2.3187    1.7386 C   0  0  0  0  0  0  0  0  0  0  0  0
    1.8483    2.8462    3.0352 C   0  0  0  0  0  0  0  0  0  0  0  0
    2.6038    2.2792    4.0622 C   0  0  0  0  0  0  0  0  0  0  0  0
    1.1348    2.8942    0.7131 C   0  0  0  0  0  0  0  0  0  0  0  0
    1.1833    2.3728   -0.5770 C   0  0  0  0  0  0  0  0  0  0  0  0
    0.9350   -0.2173   -2.6392 C   0  0  0  0  0  0  0  0  0  0  0  0
   -0.0581   -0.6935   -1.7482 C   0  0  0  0  0  0  0  0  0  0  0  0
   -1.0746   -1.6129   -2.1077 C   0  0  0  0  0  0  0  0  0  0  0  0
   -1.3654   -2.3201    1.1613 C   0  0  0  0  0  0  0  0  0  0  0  0
   -1.2867   -1.8930    2.4841 C   0  0  0  0  0  0  0  0  0  0  0  0
   -1.9235   -0.7162    2.8878 C   0  0  0  0  0  0  0  0  0  0  0  0
   -2.6526    0.0461    1.9438 C   0  0  0  0  0  0  0  0  0  0  0  0
   -1.8449   -0.2837    4.2175 C   0  0  0  0  0  0  0  0  0  0  0  0
   -2.4757    0.8922    4.6255 C   0  0  0  0  0  0  0  0  0  0  0  0
   -5.0346    4.5370    3.5113 H   0  0  0  0  0  0  0  0  0  0  0  0
   -3.7715    3.1917    5.1426 H   0  0  0  0  0  0  0  0  0  0  0  0
   -5.2077    3.8154    1.1623 H   0  0  0  0  0  0  0  0  0  0  0  0
   -4.6590    2.1821   -0.6228 H   0  0  0  0  0  0  0  0  0  0  0  0
   -3.5762    0.1353   -1.3482 H   0  0  0  0  0  0  0  0  0  0  0  0
   -4.1926   -3.1705    0.2302 H   0  0  0  0  0  0  0  0  0  0  0  0
   -5.8551   -4.7516   -0.6087 H   0  0  0  0  0  0  0  0  0  0  0  0
   -5.7675   -5.5328   -2.9627 H   0  0  0  0  0  0  0  0  0  0  0  0
   -4.0016   -4.7135   -4.4647 H   0  0  0  0  0  0  0  0  0  0  0  0
   -2.0462   -3.3469   -4.8761 H   0  0  0  0  0  0  0  0  0  0  0  0
   -0.1057   -2.0006   -5.3565 H   0  0  0  0  0  0  0  0  0  0  0  0
    1.8284   -0.6690   -5.8963 H   0  0  0  0  0  0  0  0  0  0  0  0
    3.7635    0.6466   -6.5096 H   0  0  0  0  0  0  0  0  0  0  0  0
    5.5305    2.2582   -5.9363 H   0  0  0  0  0  0  0  0  0  0  0  0
    5.6620    3.1903   -3.6400 H   0  0  0  0  0  0  0  0  0  0  0  0
    4.0445    2.5150   -1.9388 H   0  0  0  0  0  0  0  0  0  0  0  0
    3.6387   -0.9395   -1.0410 H   0  0  0  0  0  0  0  0  0  0  0  0
    4.9342   -1.9218    0.7605 H   0  0  0  0  0  0  0  0  0  0  0  0
    5.6535   -1.9447    3.1354 H   0  0  0  0  0  0  0  0  0  0  0  0
    5.5586   -0.9713    5.3955 H   0  0  0  0  0  0  0  0  0  0  0  0
    4.1514    0.9982    5.8511 H   0  0  0  0  0  0  0  0  0  0  0  0
    1.2234    3.7083    3.2586 H   0  0  0  0  0  0  0  0  0  0  0  0
    2.5525    2.7186    5.0558 H   0  0  0  0  0  0  0  0  0  0  0  0
    0.4925    3.7499    0.9106 H   0  0  0  0  0  0  0  0  0  0  0  0
    0.5781    2.8337   -1.3558 H   0  0  0  0  0  0  0  0  0  0  0  0
   -0.0414   -0.3267   -0.7225 H   0  0  0  0  0  0  0  0  0  0  0  0
   -0.8470   -3.2316    0.8683 H   0  0  0  0  0  0  0  0  0  0  0  0
   -0.7115   -2.4843    3.1931 H   0  0  0  0  0  0  0  0  0  0  0  0
   -1.2878   -0.8610    4.9522 H   0  0  0  0  0  0  0  0  0  0  0  0
   -2.3969    1.1958    5.6670 H   0  0  0  0  0  0  0  0  0  0  0  0
  1  2  4  0
  2  3  4  0
  3  4  4  0
  4  5  4  0
  5  6  4  0
  5  7  4  0
  7  8  4  0
  8  9  4  0
  9 10  4  0
 10 11  1  0
 11 12  4  0
 12 13  4  0
 13 14  4  0
 14 15  4  0
 15 16  4  0
 16 17  4  0
 17 18  4  0
 18 19  4  0
 19 20  4  0
 20 21  4  0
 21 22  4  0
 22 23  4  0
 23 24  4  0
 24 25  4  0
 25 26  4  0
 26 27  4  0
 27 28  4  0
 28 29  4  0
 29 30  1  0
 30 31  4  0
 31 32  4  0
 32 33  4  0
 33 34  4  0
 34 35  4  0
 35 36  4  0
 36 37  4  0
 37 38  4  0
 38 39  4  0
 39 40  4  0
 40 41  4  0
 41 42  4  0
 42 43  4  0
 41 44  4  0
 44 45  4  0
 29 46  4  0
 46 47  4  0
 47 48  4  0
 10 49  4  0
 49 50  4  0
 50 51  4  0
 51 52  4  0
 51 53  4  0
 53 54  4  0
  6  1  4  0
 52  9  4  0
 54  3  4  0
 52  4  4  0
 48 11  4  0
 17 12  4  0
 48 19  4  0
 46 21  4  0
 28 23  4  0
 45 30  4  0
 40 31  4  0
 39 34  4  0
 43 38  4  0
  1 55  1  0
  2 56  1  0
  6 57  1  0
  7 58  1  0
  8 59  1  0
 13 60  1  0
 14 61  1  0
 15 62  1  0
 16 63  1  0
 18 64  1  0
 20 65  1  0
 22 66  1  0
 24 67  1  0
 25 68  1  0
 26 69  1  0
 27 70  1  0
 32 71  1  0
 33 72  1  0
 35 73  1  0
 36 74  1  0
 37 75  1  0
 42 76  1  0
 43 77  1  0
 44 78  1  0
 45 79  1  0
 47 80  1  0
 49 81  1  0
 50 82  1  0
 53 83  1  0
 54 84  1  0
M  END
