
     RDKit          3D

 84 96  0  0  0  0  0  0  0  0999 V2000
   -1.2590    5.3910    3.2048 C   0  0  0  0  0  0  0  0  0  0  0  0
   -2.4102    4.6151    3.0740 C   0  0  0  0  0  0  0  0  0  0  0  0
   -2.5228    3.6719    2.0420 C   0  0  0  0  0  0  0  0  0  0  0  0
   -1.4558    3.5153    1.1271 C   0  0  0  0  0  0  0  0  0  0  0  0
   -0.2891    4.3022    1.2611 C   0  0  0  0  0  0  0  0  0  0  0  0
   -0.2051    5.2350    2.3052 C   0  0  0  0  0  0  0  0  0  0  0  0
    0.7609    4.1282    0.3504 C   0  0  0  0  0  0  0  0  0  0  0  0
    0.6621    3.1960   -0.6856 C   0  0  0  0  0  0  0  0  0  0  0  0
   -0.4871    2.4089   -0.8344 C   0  0  0  0  0  0  0  0  0  0  0  0
   -0.5921    1.4545   -1.8584 C   0  0  0  0  0  0  0  0  0  0  0  0
   -1.7211    0.6279   -1.9686 C   0  0  0  0  0  0  0  0  0  0  0  0
   -1.7698   -0.4714   -2.9621 C   0  0  0  0  0  0  0  0  0  0  0  0
   -2.5387   -0.3379   -4.1579 C   0  0  0  0  0  0  0  0  0  0  0  0
   -3.2358    0.8420   -4.5171 C   0  0  0  0  0  0  0  0  0  0  0  0
   -3.9796    0.9304   -5.6956 C   0  0  0  0  0  0  0  0  0  0  0  0
   -4.0480   -0.1593   -6.5514 C   0  0  0  0  0  0  0  0  0  0  0  0
   -3.3705   -1.3335   -6.2282 C   0  0  0  0  0  0  0  0  0  0  0  0
   -2.6165   -1.4354   -5.0461 C   0  0  0  0  0  0  0  0  0  0  0  0
   -1.9424   -2.6274   -4.7450 C   0  0  0  0  0  0  0  0  0  0  0  0
   -1.1699   -2.7686   -3.5843 C   0  0  0  0  0  0  0  0  0  0  0  0
   -0.5038   -3.9769   -3.3036 C   0  0  0  0  0  0  0  0  0  0  0  0
    0.2942   -4.1429   -2.1559 C   0  0  0  0  0  0  0  0  0  0  0  0
    0.9449   -5.3577   -1.9001 C   0  0  0  0  0  0  0  0  0  0  0  0
    1.7588   -5.5391   -0.7724 C   0  0  0  0  0  0  0  0  0  0  0  0
    2.3881   -6.7762   -0.5497 C   0  0  0  0  0  0  0  0  0  0  0  0
    3.2090   -6.9776    0.5584 C   0  0  0  0  0  0  0  0  0  0  0  0
    3.4125   -5.9423    1.4594 C   0  0  0  0  0  0  0  0  0  0  0  0
    2.7935   -4.7080    1.2504 C   0  0  0  0  0  0  0  0  0  0  0  0
    1.9525   -4.4724    0.1354 C   0  0  0  0  0  0  0  0  0  0  0  0
    1.3020   -3.2273   -0.1154 C   0  0  0  0  0  0  0  0  0  0  0  0
    1.5393   -2.0599    0.7652 C   0  0  0  0  0  0  0  0  0  0  0  0
    0.6601   -1.7520    1.8141 C   0  0  0  0  0  0  0  0  0  0  0  0
    0.8210   -0.5836    2.5764 C   0  0  0  0  0  0  0  0  0  0  0  0
    1.8961    0.2889    2.2912 C   0  0  0  0  0  0  0  0  0  0  0  0
    2.8015   -0.0213    1.2527 C   0  0  0  0  0  0  0  0  0  0  0  0
    2.6122   -1.1921    0.5045 C   0  0  0  0  0  0  0  0  0  0  0  0
    3.8622    0.8536    0.9816 C   0  0  0  0  0  0  0  0  0  0  0  0
    4.0296    2.0252    1.7236 C   0  0  0  0  0  0  0  0  0  0  0  0
    3.1383    2.3526    2.7537 C   0  0  0  0  0  0  0  0  0  0  0  0
    3.2882    3.5288    3.5030 C   0  0  0  0  0  0  0  0  0  0  0  0
    2.3878    3.8416    4.5205 C   0  0  0  0  0  0  0  0  0  0  0  0
    1.3266    2.9823    4.8033 C   0  0  0  0  0  0  0  0  0  0  0  0
    1.1515    1.7971    4.0737 C   0  0  0  0  0  0  0  0  0  0  0  0
    2.0630    1.4796    3.0409 C   0  0  0  0  0  0  0  0  0  0  0  0
    0.0919    0.9210    4.3444 C   0  0  0  0  0  0  0  0  0  0  0  0
   -0.0707   -0.2541    3.6058 C   0  0  0  0  0  0  0  0  0  0  0  0
    0.4501   -3.0761   -1.2569 C   0  0  0  0  0  0  0  0  0  0  0  0
   -0.2555   -1.8840   -1.5462 C   0  0  0  0  0  0  0  0  0  0  0  0
   -1.0666   -1.6908   -2.6901 C   0  0  0  0  0  0  0  0  0  0  0  0
   -2.7767    0.8027   -1.0592 C   0  0  0  0  0  0  0  0  0  0  0  0
   -2.7098    1.7641   -0.0397 C   0  0  0  0  0  0  0  0  0  0  0  0
   -1.5524    2.5647    0.0807 C   0  0  0  0  0  0  0  0  0  0  0  0
   -3.7592    1.9338    0.8736 C   0  0  0  0  0  0  0  0  0  0  0  0
   -3.6681    2.8774    1.8997 C   0  0  0  0  0  0  0  0  0  0  0  0
   -1.1824    6.1174    4.0099 H   0  0  0  0  0  0  0  0  0  0  0  0
   -3.2201    4.7507    3.7874 H   0  0  0  0  0  0  0  0  0  0  0  0
    0.6855    5.8476    2.4260 H   0  0  0  0  0  0  0  0  0  0  0  0
    1.6757    4.7083    0.4478 H   0  0  0  0  0  0  0  0  0  0  0  0
    1.5027    3.0788   -1.3653 H   0  0  0  0  0  0  0  0  0  0  0  0
    0.2340    1.3171   -2.5543 H   0  0  0  0  0  0  0  0  0  0  0  0
   -3.2001    1.7200   -3.8743 H   0  0  0  0  0  0  0  0  0  0  0  0
   -4.5006    1.8525   -5.9392 H   0  0  0  0  0  0  0  0  0  0  0  0
   -4.6247   -0.0973   -7.4701 H   0  0  0  0  0  0  0  0  0  0  0  0
   -3.4351   -2.1763   -6.9134 H   0  0  0  0  0  0  0  0  0  0  0  0
   -2.0172   -3.4664   -5.4355 H   0  0  0  0  0  0  0  0  0  0  0  0
   -0.6052   -4.8088   -3.9997 H   0  0  0  0  0  0  0  0  0  0  0  0
    0.8144   -6.1844   -2.5971 H   0  0  0  0  0  0  0  0  0  0  0  0
    2.2426   -7.6004   -1.2453 H   0  0  0  0  0  0  0  0  0  0  0  0
    3.6873   -7.9406    0.7152 H   0  0  0  0  0  0  0  0  0  0  0  0
    4.0505   -6.0880    2.3270 H   0  0  0  0  0  0  0  0  0  0  0  0
    2.9735   -3.9207    1.9806 H   0  0  0  0  0  0  0  0  0  0  0  0
   -0.1788   -2.4175    2.0120 H   0  0  0  0  0  0  0  0  0  0  0  0
    3.2914   -1.4265   -0.3140 H   0  0  0  0  0  0  0  0  0  0  0  0
    4.5689    0.6310    0.1853 H   0  0  0  0  0  0  0  0  0  0  0  0
    4.8634    2.6820    1.4868 H   0  0  0  0  0  0  0  0  0  0  0  0
    4.1088    4.2126    3.2975 H   0  0  0  0  0  0  0  0  0  0  0  0
    2.5133    4.7564    5.0942 H   0  0  0  0  0  0  0  0  0  0  0  0
    0.6354    3.2449    5.6011 H   0  0  0  0  0  0  0  0  0  0  0  0
   -0.6221    1.1476    5.1330 H   0  0  0  0  0  0  0  0  0  0  0  0
   -0.9088   -0.9077    3.8380 H   0  0  0  0  0  0  0  0  0  0  0  0
   -0.1651   -1.0595   -0.8414 H   0  0  0  0  0  0  0  0  0  0  0  0
   -3.6507    0.1573   -1.1367 H   0  0  0  0  0  0  0  0  0  0  0  0
   -4.6576    1.3251    0.7986 H   0  0  0  0  0  0  0  0  0  0  0  0
   -4.4999    2.9807    2.5929 H   0  0  0  0  0  0  0  0  0  0  0  0
  1  2  4  0
  2  3  4  0
  3  4  4  0
  4  5  4  0
  5  6  4  0
  5  7  4  0
  7  8  4  0
  8  9  4  0
  9 10  4  0
 10 11  4  0
 11 12  1  0
 12 13  4  0
 13 14  4  0
 14 15  4  0
 15 16  4  0
 16 17  4  0
 17 18  4  0
 18 19  4  0
 19 20  4  0
 20 21  4  0
 21 22  4  0
 22 23  4  0
 23 24  4  0
 24 25  4  0
 25 26  4  0
 26 27  4  0
 27 28  4  0
 28 29  4  0
 29 30  4  0
 30 31  1  0
 31 32  4  0
 32 33  4  0
 33 34  4  0
 34 35  4  0
 35 36  4  0
 35 37  4  0
 37 38  4  0
 38 39  4  0
 39 40  4  0
 40 41  4  0
 41 42  4  0
 42 43  4  0
 43 44  4  0
 43 45  4  0
 45 46  4  0
 30 47  4  0
 47 48  4  0
 48 49  4  0
 11 50  4  0
 50 51  4  0
 51 52  4  0
 51 53  4  0
 53 54  4  0
  6  1  4  0
 52  9  4  0
 54  3  4  0
 52  4  4  0
 49 12  4  0
 18 13  4  0
 49 20  4  0
 47 22  4  0
 29 24  4  0
 36 31  4  0
 44 39  4  0
 46 33  4  0
 44 34  4  0
  1 55  1  0
  2 56  1  0
  6 57  1  0
  7 58  1  0
  8 59  1  0
 10 60  1  0
 14 61  1  0
 15 62  1  0
 16 63  1  0
 17 64  1  0
 19 65  1  0
 21 66  1  0
 23 67  1  0
 25 68  1  0
 26 69  1  0
 27 70  1  0
 28 71  1  0
 32 72  1  0
 36 73  1  0
 37 74  1  0
 38 75  1  0
 40 76  1  0
 41 77  1  0
 42 78  1  0
 45 79  1  0
 46 80  1  0
 48 81  1  0
 50 82  1  0
 53 83  1  0
 54 84  1  0
M  END
