
     RDKit          3D

116132  0  0  0  0  0  0  0  0999 V2000
    3.2698   -2.1267    7.3486 C   0  0  0  0  0  0  0  0  0  0  0  0
    3.7102   -3.1681    6.5377 C   0  0  0  0  0  0  0  0  0  0  0  0
    3.7058   -3.0202    5.1500 C   0  0  0  0  0  0  0  0  0  0  0  0
    3.2594   -1.8279    4.5566 C   0  0  0  0  0  0  0  0  0  0  0  0
    3.2412   -1.6657    3.1626 C   0  0  0  0  0  0  0  0  0  0  0  0
    2.7879   -0.4752    2.5704 C   0  0  0  0  0  0  0  0  0  0  0  0
    2.7604   -0.3157    1.1750 C   0  0  0  0  0  0  0  0  0  0  0  0
    2.2880    0.8636    0.5455 C   0  0  0  0  0  0  0  0  0  0  0  0
    1.8459    1.9055    1.3836 C   0  0  0  0  0  0  0  0  0  0  0  0
    1.8869    1.7566    2.7819 C   0  0  0  0  0  0  0  0  0  0  0  0
    2.3458    0.5768    3.3865 C   0  0  0  0  0  0  0  0  0  0  0  0
    2.3659    0.4196    4.7829 C   0  0  0  0  0  0  0  0  0  0  0  0
    2.8150   -0.7706    5.3784 C   0  0  0  0  0  0  0  0  0  0  0  0
    2.8251   -0.9353    6.7731 C   0  0  0  0  0  0  0  0  0  0  0  0
    1.3468    3.0847    0.8179 C   0  0  0  0  0  0  0  0  0  0  0  0
    1.2669    3.2678   -0.5690 C   0  0  0  0  0  0  0  0  0  0  0  0
    0.7359    4.4614   -1.0887 C   0  0  0  0  0  0  0  0  0  0  0  0
    0.6269    4.6804   -2.4693 C   0  0  0  0  0  0  0  0  0  0  0  0
    0.0972    5.8745   -2.9869 C   0  0  0  0  0  0  0  0  0  0  0  0
   -0.0043    6.0717   -4.3647 C   0  0  0  0  0  0  0  0  0  0  0  0
    0.4185    5.0767   -5.2405 C   0  0  0  0  0  0  0  0  0  0  0  0
    0.9459    3.8858   -4.7389 C   0  0  0  0  0  0  0  0  0  0  0  0
    1.0574    3.6755   -3.3544 C   0  0  0  0  0  0  0  0  0  0  0  0
    1.5856    2.4827   -2.8311 C   0  0  0  0  0  0  0  0  0  0  0  0
    1.7044    2.2472   -1.4387 C   0  0  0  0  0  0  0  0  0  0  0  0
    2.2157    1.0340   -0.8776 C   0  0  0  0  0  0  0  0  0  0  0  0
    2.5919   -0.1103   -1.7666 C   0  0  0  0  0  0  0  0  0  0  0  0
    3.9284   -0.2532   -2.2464 C   0  0  0  0  0  0  0  0  0  0  0  0
    4.9540    0.6920   -2.0033 C   0  0  0  0  0  0  0  0  0  0  0  0
    6.2500    0.5138   -2.4910 C   0  0  0  0  0  0  0  0  0  0  0  0
    6.5582   -0.6172   -3.2334 C   0  0  0  0  0  0  0  0  0  0  0  0
    5.5713   -1.5687   -3.4846 C   0  0  0  0  0  0  0  0  0  0  0  0
    4.2627   -1.4020   -2.9999 C   0  0  0  0  0  0  0  0  0  0  0  0
    3.2903   -2.3818   -3.2492 C   0  0  0  0  0  0  0  0  0  0  0  0
    1.9735   -2.2530   -2.7867 C   0  0  0  0  0  0  0  0  0  0  0  0
    1.0212   -3.2638   -3.0155 C   0  0  0  0  0  0  0  0  0  0  0  0
   -0.3053   -3.1572   -2.5569 C   0  0  0  0  0  0  0  0  0  0  0  0
   -1.2259   -4.1936   -2.7641 C   0  0  0  0  0  0  0  0  0  0  0  0
   -2.5526   -4.1063   -2.3181 C   0  0  0  0  0  0  0  0  0  0  0  0
   -3.4406   -5.1741   -2.5357 C   0  0  0  0  0  0  0  0  0  0  0  0
   -4.7655   -5.1067   -2.1090 C   0  0  0  0  0  0  0  0  0  0  0  0
   -5.2204   -3.9691   -1.4581 C   0  0  0  0  0  0  0  0  0  0  0  0
   -4.3493   -2.9008   -1.2362 C   0  0  0  0  0  0  0  0  0  0  0  0
   -2.9978   -2.9384   -1.6568 C   0  0  0  0  0  0  0  0  0  0  0  0
   -2.0763   -1.8659   -1.4551 C   0  0  0  0  0  0  0  0  0  0  0  0
   -2.5298   -0.5749   -0.8462 C   0  0  0  0  0  0  0  0  0  0  0  0
   -3.0868    0.4402   -1.6953 C   0  0  0  0  0  0  0  0  0  0  0  0
   -3.2844    0.2842   -3.0915 C   0  0  0  0  0  0  0  0  0  0  0  0
   -3.8265    1.2965   -3.9022 C   0  0  0  0  0  0  0  0  0  0  0  0
   -4.0157    1.1124   -5.2824 C   0  0  0  0  0  0  0  0  0  0  0  0
   -4.5556    2.1293   -6.0708 C   0  0  0  0  0  0  0  0  0  0  0  0
   -4.9125    3.3420   -5.4897 C   0  0  0  0  0  0  0  0  0  0  0  0
   -4.7279    3.5386   -4.1202 C   0  0  0  0  0  0  0  0  0  0  0  0
   -4.1863    2.5221   -3.3151 C   0  0  0  0  0  0  0  0  0  0  0  0
   -3.9924    2.6968   -1.9373 C   0  0  0  0  0  0  0  0  0  0  0  0
   -3.4526    1.6784   -1.1307 C   0  0  0  0  0  0  0  0  0  0  0  0
   -3.2676    1.8978    0.2390 C   0  0  0  0  0  0  0  0  0  0  0  0
   -2.7231    0.9207    1.0812 C   0  0  0  0  0  0  0  0  0  0  0  0
   -2.5457    1.1991    2.4471 C   0  0  0  0  0  0  0  0  0  0  0  0
   -1.9844    0.2613    3.3249 C   0  0  0  0  0  0  0  0  0  0  0  0
   -1.8080    0.5467    4.6900 C   0  0  0  0  0  0  0  0  0  0  0  0
   -1.2405   -0.3925    5.5657 C   0  0  0  0  0  0  0  0  0  0  0  0
   -1.0630   -0.1100    6.9305 C   0  0  0  0  0  0  0  0  0  0  0  0
   -0.4930   -1.0534    7.7864 C   0  0  0  0  0  0  0  0  0  0  0  0
   -0.0940   -2.2902    7.2895 C   0  0  0  0  0  0  0  0  0  0  0  0
   -0.2655   -2.5857    5.9361 C   0  0  0  0  0  0  0  0  0  0  0  0
   -0.8372   -1.6467    5.0617 C   0  0  0  0  0  0  0  0  0  0  0  0
   -1.0141   -1.9274    3.6965 C   0  0  0  0  0  0  0  0  0  0  0  0
   -1.5888   -0.9885    2.8225 C   0  0  0  0  0  0  0  0  0  0  0  0
   -1.7779   -1.2676    1.4561 C   0  0  0  0  0  0  0  0  0  0  0  0
   -2.3449   -0.3312    0.5543 C   0  0  0  0  0  0  0  0  0  0  0  0
   -0.7175   -1.9954   -1.8849 C   0  0  0  0  0  0  0  0  0  0  0  0
    0.2583   -0.9987   -1.6631 C   0  0  0  0  0  0  0  0  0  0  0  0
    1.6071   -1.1037   -2.0696 C   0  0  0  0  0  0  0  0  0  0  0  0
    3.2731   -2.2395    8.4295 H   0  0  0  0  0  0  0  0  0  0  0  0
    4.0586   -4.0959    6.9837 H   0  0  0  0  0  0  0  0  0  0  0  0
    4.0588   -3.8433    4.5324 H   0  0  0  0  0  0  0  0  0  0  0  0
    3.5796   -2.4802    2.5252 H   0  0  0  0  0  0  0  0  0  0  0  0
    3.1078   -1.1466    0.5635 H   0  0  0  0  0  0  0  0  0  0  0  0
    1.5352    2.5689    3.4163 H   0  0  0  0  0  0  0  0  0  0  0  0
    2.0155    1.2320    5.4166 H   0  0  0  0  0  0  0  0  0  0  0  0
    2.4884   -0.1316    7.4246 H   0  0  0  0  0  0  0  0  0  0  0  0
    0.9962    3.8770    1.4783 H   0  0  0  0  0  0  0  0  0  0  0  0
    0.3892    5.2329   -0.4030 H   0  0  0  0  0  0  0  0  0  0  0  0
   -0.2418    6.6616   -2.3174 H   0  0  0  0  0  0  0  0  0  0  0  0
   -0.4151    7.0003   -4.7521 H   0  0  0  0  0  0  0  0  0  0  0  0
    0.3356    5.2241   -6.3138 H   0  0  0  0  0  0  0  0  0  0  0  0
    1.2677    3.1170   -5.4379 H   0  0  0  0  0  0  0  0  0  0  0  0
    1.9062    1.7142   -3.5330 H   0  0  0  0  0  0  0  0  0  0  0  0
    4.7485    1.5921   -1.4260 H   0  0  0  0  0  0  0  0  0  0  0  0
    7.0132    1.2606   -2.2882 H   0  0  0  0  0  0  0  0  0  0  0  0
    7.5653   -0.7618   -3.6152 H   0  0  0  0  0  0  0  0  0  0  0  0
    5.8354   -2.4506   -4.0648 H   0  0  0  0  0  0  0  0  0  0  0  0
    3.5664   -3.2700   -3.8157 H   0  0  0  0  0  0  0  0  0  0  0  0
    1.3228   -4.1605   -3.5552 H   0  0  0  0  0  0  0  0  0  0  0  0
   -0.8991   -5.0957   -3.2796 H   0  0  0  0  0  0  0  0  0  0  0  0
   -3.1048   -6.0752   -3.0453 H   0  0  0  0  0  0  0  0  0  0  0  0
   -5.4392   -5.9409   -2.2859 H   0  0  0  0  0  0  0  0  0  0  0  0
   -6.2519   -3.9066   -1.1209 H   0  0  0  0  0  0  0  0  0  0  0  0
   -4.7423   -2.0263   -0.7200 H   0  0  0  0  0  0  0  0  0  0  0  0
   -3.0065   -0.6531   -3.5705 H   0  0  0  0  0  0  0  0  0  0  0  0
   -3.7398    0.1711   -5.7524 H   0  0  0  0  0  0  0  0  0  0  0  0
   -4.6960    1.9732   -7.1370 H   0  0  0  0  0  0  0  0  0  0  0  0
   -5.3342    4.1358   -6.1007 H   0  0  0  0  0  0  0  0  0  0  0  0
   -5.0109    4.4936   -3.6834 H   0  0  0  0  0  0  0  0  0  0  0  0
   -4.2630    3.6493   -1.4844 H   0  0  0  0  0  0  0  0  0  0  0  0
   -3.5455    2.8634    0.6601 H   0  0  0  0  0  0  0  0  0  0  0  0
   -2.8457    2.1707    2.8366 H   0  0  0  0  0  0  0  0  0  0  0  0
   -2.1139    1.5173    5.0758 H   0  0  0  0  0  0  0  0  0  0  0  0
   -1.3665    0.8524    7.3365 H   0  0  0  0  0  0  0  0  0  0  0  0
   -0.3590   -0.8204    8.8395 H   0  0  0  0  0  0  0  0  0  0  0  0
    0.3539   -3.0253    7.9529 H   0  0  0  0  0  0  0  0  0  0  0  0
    0.0599   -3.5543    5.5637 H   0  0  0  0  0  0  0  0  0  0  0  0
   -0.6952   -2.8924    3.3072 H   0  0  0  0  0  0  0  0  0  0  0  0
   -1.4637   -2.2428    1.0868 H   0  0  0  0  0  0  0  0  0  0  0  0
   -0.0449   -0.0972   -1.1337 H   0  0  0  0  0  0  0  0  0  0  0  0
  1  2  4  0
  2  3  4  0
  3  4  4  0
  4  5  4  0
  5  6  4  0
  6  7  4  0
  7  8  4  0
  8  9  4  0
  9 10  4  0
 10 11  4  0
 11 12  4  0
 12 13  4  0
 13 14  4  0
  9 15  4  0
 15 16  4  0
 16 17  4  0
 17 18  4  0
 18 19  4  0
 19 20  4  0
 20 21  4  0
 21 22  4  0
 22 23  4  0
 23 24  4  0
 24 25  4  0
 25 26  4  0
 26 27  1  0
 27 28  4  0
 28 29  4  0
 29 30  4  0
 30 31  4  0
 31 32  4  0
 32 33  4  0
 33 34  4  0
 34 35  4  0
 35 36  4  0
 36 37  4  0
 37 38  4  0
 38 39  4  0
 39 40  4  0
 40 41  4  0
 41 42  4  0
 42 43  4  0
 43 44  4  0
 44 45  4  0
 45 46  1  0
 46 47  4  0
 47 48  4  0
 48 49  4  0
 49 50  4  0
 50 51  4  0
 51 52  4  0
 52 53  4  0
 53 54  4  0
 54 55  4  0
 55 56  4  0
 56 57  4  0
 57 58  4  0
 58 59  4  0
 59 60  4  0
 60 61  4  0
 61 62  4  0
 62 63  4  0
 63 64  4  0
 64 65  4  0
 65 66  4  0
 66 67  4  0
 67 68  4  0
 68 69  4  0
 69 70  4  0
 70 71  4  0
 45 72  4  0
 72 73  4  0
 73 74  4  0
 14  1  4  0
 25 16  4  0
 74 27  4  0
 13  4  4  0
 23 18  4  0
 33 28  4  0
 74 35  4  0
 11  6  4  0
 72 37  4  0
 26  8  4  0
 44 39  4  0
 71 46  4  0
 56 47  4  0
 71 58  4  0
 54 49  4  0
 69 60  4  0
 67 62  4  0
  1 75  1  0
  2 76  1  0
  3 77  1  0
  5 78  1  0
  7 79  1  0
 10 80  1  0
 12 81  1  0
 14 82  1  0
 15 83  1  0
 17 84  1  0
 19 85  1  0
 20 86  1  0
 21 87  1  0
 22 88  1  0
 24 89  1  0
 29 90  1  0
 30 91  1  0
 31 92  1  0
 32 93  1  0
 34 94  1  0
 36 95  1  0
 38 96  1  0
 40 97  1  0
 41 98  1  0
 42 99  1  0
 43100  1  0
 48101  1  0
 50102  1  0
 51103  1  0
 52104  1  0
 53105  1  0
 55106  1  0
 57107  1  0
 59108  1  0
 61109  1  0
 63110  1  0
 64111  1  0
 65112  1  0
 66113  1  0
 68114  1  0
 70115  1  0
 73116  1  0
M  END
