
     RDKit          3D

116132  0  0  0  0  0  0  0  0999 V2000
  -12.7238   -2.2631   -3.7079 C   0  0  0  0  0  0  0  0  0  0  0  0
  -11.5370   -2.9115   -3.3629 C   0  0  0  0  0  0  0  0  0  0  0  0
  -10.5224   -2.2320   -2.6683 C   0  0  0  0  0  0  0  0  0  0  0  0
   -9.3225   -2.8703   -2.3132 C   0  0  0  0  0  0  0  0  0  0  0  0
   -8.3082   -2.1903   -1.6178 C   0  0  0  0  0  0  0  0  0  0  0  0
   -7.1083   -2.8292   -1.2621 C   0  0  0  0  0  0  0  0  0  0  0  0
   -6.0941   -2.1507   -0.5656 C   0  0  0  0  0  0  0  0  0  0  0  0
   -4.8945   -2.7895   -0.2088 C   0  0  0  0  0  0  0  0  0  0  0  0
   -3.8808   -2.1098    0.4884 C   0  0  0  0  0  0  0  0  0  0  0  0
   -2.6805   -2.7440    0.8449 C   0  0  0  0  0  0  0  0  0  0  0  0
   -1.6645   -2.0651    1.5384 C   0  0  0  0  0  0  0  0  0  0  0  0
   -0.4726   -2.7282    1.8687 C   0  0  0  0  0  0  0  0  0  0  0  0
    0.5500   -2.0704    2.5450 C   0  0  0  0  0  0  0  0  0  0  0  0
    0.3939   -0.7356    2.8990 C   0  0  0  0  0  0  0  0  0  0  0  0
   -0.7873   -0.0356    2.5852 C   0  0  0  0  0  0  0  0  0  0  0  0
   -0.8592    1.4053    2.9486 C   0  0  0  0  0  0  0  0  0  0  0  0
   -1.2977    1.7986    4.2514 C   0  0  0  0  0  0  0  0  0  0  0  0
   -1.7347    0.8867    5.2439 C   0  0  0  0  0  0  0  0  0  0  0  0
   -2.1567    1.3130    6.5051 C   0  0  0  0  0  0  0  0  0  0  0  0
   -2.1528    2.6655    6.8128 C   0  0  0  0  0  0  0  0  0  0  0  0
   -1.7297    3.5883    5.8583 C   0  0  0  0  0  0  0  0  0  0  0  0
   -1.3053    3.1722    4.5839 C   0  0  0  0  0  0  0  0  0  0  0  0
   -0.8868    4.1196    3.6400 C   0  0  0  0  0  0  0  0  0  0  0  0
   -0.4684    3.7496    2.3547 C   0  0  0  0  0  0  0  0  0  0  0  0
   -0.0558    4.7240    1.4293 C   0  0  0  0  0  0  0  0  0  0  0  0
    0.3608    4.3903    0.1286 C   0  0  0  0  0  0  0  0  0  0  0  0
    0.7760    5.3874   -0.7642 C   0  0  0  0  0  0  0  0  0  0  0  0
    1.1952    5.0871   -2.0670 C   0  0  0  0  0  0  0  0  0  0  0  0
    1.6147    6.1179   -2.9261 C   0  0  0  0  0  0  0  0  0  0  0  0
    2.0374    5.8450   -4.2256 C   0  0  0  0  0  0  0  0  0  0  0  0
    2.0452    4.5358   -4.6835 C   0  0  0  0  0  0  0  0  0  0  0  0
    1.6285    3.5030   -3.8407 C   0  0  0  0  0  0  0  0  0  0  0  0
    1.1931    3.7467   -2.5144 C   0  0  0  0  0  0  0  0  0  0  0  0
    0.7616    2.7198   -1.6178 C   0  0  0  0  0  0  0  0  0  0  0  0
    0.7036    1.3047   -2.0731 C   0  0  0  0  0  0  0  0  0  0  0  0
    1.7829    0.3930   -1.8830 C   0  0  0  0  0  0  0  0  0  0  0  0
    3.0087    0.7525   -1.2757 C   0  0  0  0  0  0  0  0  0  0  0  0
    4.0545   -0.1674   -1.0888 C   0  0  0  0  0  0  0  0  0  0  0  0
    5.2627    0.2098   -0.4790 C   0  0  0  0  0  0  0  0  0  0  0  0
    6.3103   -0.7083   -0.2964 C   0  0  0  0  0  0  0  0  0  0  0  0
    7.5199   -0.3299    0.3103 C   0  0  0  0  0  0  0  0  0  0  0  0
    8.5691   -1.2469    0.4898 C   0  0  0  0  0  0  0  0  0  0  0  0
    9.7793   -0.8669    1.0949 C   0  0  0  0  0  0  0  0  0  0  0  0
   10.8289   -1.7832    1.2727 C   0  0  0  0  0  0  0  0  0  0  0  0
   12.0392   -1.4037    1.8766 C   0  0  0  0  0  0  0  0  0  0  0  0
   13.0729   -2.3260    2.0457 C   0  0  0  0  0  0  0  0  0  0  0  0
   12.9102   -3.6386    1.6139 C   0  0  0  0  0  0  0  0  0  0  0  0
   11.7135   -4.0310    1.0122 C   0  0  0  0  0  0  0  0  0  0  0  0
   10.6639   -3.1144    0.8347 C   0  0  0  0  0  0  0  0  0  0  0  0
    9.4536   -3.4932    0.2306 C   0  0  0  0  0  0  0  0  0  0  0  0
    8.4042   -2.5756    0.0526 C   0  0  0  0  0  0  0  0  0  0  0  0
    7.1939   -2.9542   -0.5529 C   0  0  0  0  0  0  0  0  0  0  0  0
    6.1447   -2.0367   -0.7328 C   0  0  0  0  0  0  0  0  0  0  0  0
    4.9341   -2.4137   -1.3389 C   0  0  0  0  0  0  0  0  0  0  0  0
    3.8871   -1.4937   -1.5213 C   0  0  0  0  0  0  0  0  0  0  0  0
    2.6761   -1.8665   -2.1253 C   0  0  0  0  0  0  0  0  0  0  0  0
    1.6289   -0.9477   -2.3090 C   0  0  0  0  0  0  0  0  0  0  0  0
    0.4279   -1.3581   -2.9080 C   0  0  0  0  0  0  0  0  0  0  0  0
   -0.6233   -0.4651   -3.0916 C   0  0  0  0  0  0  0  0  0  0  0  0
   -0.4859    0.8548   -2.6784 C   0  0  0  0  0  0  0  0  0  0  0  0
    0.3591    3.0473   -0.2827 C   0  0  0  0  0  0  0  0  0  0  0  0
   -0.0471    2.0826    0.6716 C   0  0  0  0  0  0  0  0  0  0  0  0
   -0.4589    2.3928    1.9912 C   0  0  0  0  0  0  0  0  0  0  0  0
   -1.8396   -0.7073    1.8970 C   0  0  0  0  0  0  0  0  0  0  0  0
   -3.0565   -0.0840    1.5344 C   0  0  0  0  0  0  0  0  0  0  0  0
   -4.0711   -0.7621    0.8372 C   0  0  0  0  0  0  0  0  0  0  0  0
   -5.2698   -0.1222    0.4800 C   0  0  0  0  0  0  0  0  0  0  0  0
   -6.2840   -0.7999   -0.2170 C   0  0  0  0  0  0  0  0  0  0  0  0
   -7.4832   -0.1602   -0.5735 C   0  0  0  0  0  0  0  0  0  0  0  0
   -8.4982   -0.8388   -1.2692 C   0  0  0  0  0  0  0  0  0  0  0  0
   -9.6981   -0.1992   -1.6244 C   0  0  0  0  0  0  0  0  0  0  0  0
  -10.7128   -0.8782   -2.3191 C   0  0  0  0  0  0  0  0  0  0  0  0
  -11.9127   -0.2395   -2.6736 C   0  0  0  0  0  0  0  0  0  0  0  0
  -12.9114   -0.9282   -3.3634 C   0  0  0  0  0  0  0  0  0  0  0  0
  -13.5003   -2.8012   -4.2452 H   0  0  0  0  0  0  0  0  0  0  0  0
  -11.4092   -3.9552   -3.6412 H   0  0  0  0  0  0  0  0  0  0  0  0
   -9.1761   -3.9146   -2.5827 H   0  0  0  0  0  0  0  0  0  0  0  0
   -6.9617   -3.8736   -1.5318 H   0  0  0  0  0  0  0  0  0  0  0  0
   -4.7475   -3.8339   -0.4778 H   0  0  0  0  0  0  0  0  0  0  0  0
   -2.5319   -3.7874    0.5724 H   0  0  0  0  0  0  0  0  0  0  0  0
   -0.3268   -3.7702    1.5922 H   0  0  0  0  0  0  0  0  0  0  0  0
    1.4716   -2.5933    2.7857 H   0  0  0  0  0  0  0  0  0  0  0  0
    1.2064   -0.2251    3.4135 H   0  0  0  0  0  0  0  0  0  0  0  0
   -1.7570   -0.1824    5.0392 H   0  0  0  0  0  0  0  0  0  0  0  0
   -2.4886    0.5848    7.2405 H   0  0  0  0  0  0  0  0  0  0  0  0
   -2.4798    3.0042    7.7921 H   0  0  0  0  0  0  0  0  0  0  0  0
   -1.7356    4.6448    6.1193 H   0  0  0  0  0  0  0  0  0  0  0  0
   -0.8911    5.1744    3.9121 H   0  0  0  0  0  0  0  0  0  0  0  0
   -0.0587    5.7711    1.7296 H   0  0  0  0  0  0  0  0  0  0  0  0
    0.7768    6.4256   -0.4346 H   0  0  0  0  0  0  0  0  0  0  0  0
    1.6167    7.1514   -2.5857 H   0  0  0  0  0  0  0  0  0  0  0  0
    2.3602    6.6536   -4.8758 H   0  0  0  0  0  0  0  0  0  0  0  0
    2.3759    4.3105   -5.6940 H   0  0  0  0  0  0  0  0  0  0  0  0
    1.6540    2.4887   -4.2354 H   0  0  0  0  0  0  0  0  0  0  0  0
    3.1537    1.7765   -0.9344 H   0  0  0  0  0  0  0  0  0  0  0  0
    5.3886    1.2374   -0.1419 H   0  0  0  0  0  0  0  0  0  0  0  0
    7.6472    0.6974    0.6475 H   0  0  0  0  0  0  0  0  0  0  0  0
    9.9070    0.1599    1.4328 H   0  0  0  0  0  0  0  0  0  0  0  0
   12.1855   -0.3823    2.2208 H   0  0  0  0  0  0  0  0  0  0  0  0
   14.0039   -2.0184    2.5145 H   0  0  0  0  0  0  0  0  0  0  0  0
   13.7138   -4.3585    1.7447 H   0  0  0  0  0  0  0  0  0  0  0  0
   11.6054   -5.0615    0.6814 H   0  0  0  0  0  0  0  0  0  0  0  0
    9.3265   -4.5200   -0.1073 H   0  0  0  0  0  0  0  0  0  0  0  0
    7.0680   -3.9809   -0.8924 H   0  0  0  0  0  0  0  0  0  0  0  0
    4.8047   -3.4405   -1.6761 H   0  0  0  0  0  0  0  0  0  0  0  0
    2.5446   -2.8950   -2.4568 H   0  0  0  0  0  0  0  0  0  0  0  0
    0.2982   -2.3883   -3.2327 H   0  0  0  0  0  0  0  0  0  0  0  0
   -1.5517   -0.7987   -3.5473 H   0  0  0  0  0  0  0  0  0  0  0  0
   -1.3187    1.5427   -2.8153 H   0  0  0  0  0  0  0  0  0  0  0  0
   -0.0427    1.0355    0.3712 H   0  0  0  0  0  0  0  0  0  0  0  0
   -3.2191    0.9603    1.7975 H   0  0  0  0  0  0  0  0  0  0  0  0
   -5.4147    0.9226    0.7501 H   0  0  0  0  0  0  0  0  0  0  0  0
   -7.6289    0.8845   -0.3040 H   0  0  0  0  0  0  0  0  0  0  0  0
   -9.8453    0.8452   -1.3552 H   0  0  0  0  0  0  0  0  0  0  0  0
  -12.0781    0.8036   -2.4133 H   0  0  0  0  0  0  0  0  0  0  0  0
  -13.8347   -0.4213   -3.6311 H   0  0  0  0  0  0  0  0  0  0  0  0
  1  2  4  0
  2  3  4  0
  3  4  4  0
  4  5  4  0
  5  6  4  0
  6  7  4  0
  7  8  4  0
  8  9  4  0
  9 10  4  0
 10 11  4  0
 11 12  4  0
 12 13  4  0
 13 14  4  0
 14 15  4  0
 15 16  1  0
 16 17  4  0
 17 18  4  0
 18 19  4  0
 19 20  4  0
 20 21  4  0
 21 22  4  0
 22 23  4  0
 23 24  4  0
 24 25  4  0
 25 26  4  0
 26 27  4  0
 27 28  4  0
 28 29  4  0
 29 30  4  0
 30 31  4  0
 31 32  4  0
 32 33  4  0
 33 34  4  0
 34 35  1  0
 35 36  4  0
 36 37  4  0
 37 38  4  0
 38 39  4  0
 39 40  4  0
 40 41  4  0
 41 42  4  0
 42 43  4  0
 43 44  4  0
 44 45  4  0
 45 46  4  0
 46 47  4  0
 47 48  4  0
 48 49  4  0
 49 50  4  0
 50 51  4  0
 51 52  4  0
 52 53  4  0
 53 54  4  0
 54 55  4  0
 55 56  4  0
 56 57  4  0
 57 58  4  0
 58 59  4  0
 59 60  4  0
 34 61  4  0
 61 62  4  0
 62 63  4  0
 15 64  4  0
 64 65  4  0
 65 66  4  0
 66 67  4  0
 67 68  4  0
 68 69  4  0
 69 70  4  0
 70 71  4  0
 71 72  4  0
 72 73  4  0
 73 74  4  0
 74  1  4  0
 72  3  4  0
 70  5  4  0
 68  7  4  0
 66  9  4  0
 64 11  4  0
 63 16  4  0
 22 17  4  0
 63 24  4  0
 61 26  4  0
 33 28  4  0
 60 35  4  0
 57 36  4  0
 55 38  4  0
 53 40  4  0
 51 42  4  0
 49 44  4  0
  1 75  1  0
  2 76  1  0
  4 77  1  0
  6 78  1  0
  8 79  1  0
 10 80  1  0
 12 81  1  0
 13 82  1  0
 14 83  1  0
 18 84  1  0
 19 85  1  0
 20 86  1  0
 21 87  1  0
 23 88  1  0
 25 89  1  0
 27 90  1  0
 29 91  1  0
 30 92  1  0
 31 93  1  0
 32 94  1  0
 37 95  1  0
 39 96  1  0
 41 97  1  0
 43 98  1  0
 45 99  1  0
 46100  1  0
 47101  1  0
 48102  1  0
 50103  1  0
 52104  1  0
 54105  1  0
 56106  1  0
 58107  1  0
 59108  1  0
 60109  1  0
 62110  1  0
 65111  1  0
 67112  1  0
 69113  1  0
 71114  1  0
 73115  1  0
 74116  1  0
M  END
