
     RDKit          3D

116132  0  0  0  0  0  0  0  0999 V2000
   -2.8296    8.9192    0.8239 C   0  0  0  0  0  0  0  0  0  0  0  0
   -2.6726    8.8116   -0.5544 C   0  0  0  0  0  0  0  0  0  0  0  0
   -2.6050    7.5522   -1.1519 C   0  0  0  0  0  0  0  0  0  0  0  0
   -2.6942    6.3837   -0.3774 C   0  0  0  0  0  0  0  0  0  0  0  0
   -2.6286    5.1090   -0.9636 C   0  0  0  0  0  0  0  0  0  0  0  0
   -2.7193    3.9405   -0.1885 C   0  0  0  0  0  0  0  0  0  0  0  0
   -2.6552    2.6654   -0.7745 C   0  0  0  0  0  0  0  0  0  0  0  0
   -2.7491    1.4964   -0.0002 C   0  0  0  0  0  0  0  0  0  0  0  0
   -2.6903    0.2191   -0.5847 C   0  0  0  0  0  0  0  0  0  0  0  0
   -2.7917   -0.9761    0.1712 C   0  0  0  0  0  0  0  0  0  0  0  0
   -2.9401   -0.8434    1.5669 C   0  0  0  0  0  0  0  0  0  0  0  0
   -2.9990    0.4326    2.1556 C   0  0  0  0  0  0  0  0  0  0  0  0
   -2.9079    1.6043    1.3899 C   0  0  0  0  0  0  0  0  0  0  0  0
   -2.9703    2.8789    1.9792 C   0  0  0  0  0  0  0  0  0  0  0  0
   -2.8789    4.0489    1.2065 C   0  0  0  0  0  0  0  0  0  0  0  0
   -2.9436    5.3237    1.7943 C   0  0  0  0  0  0  0  0  0  0  0  0
   -2.8537    6.4925    1.0204 C   0  0  0  0  0  0  0  0  0  0  0  0
   -2.9195    7.7673    1.6069 C   0  0  0  0  0  0  0  0  0  0  0  0
   -3.0235   -1.9876    2.3699 C   0  0  0  0  0  0  0  0  0  0  0  0
   -2.9759   -3.2780    1.8292 C   0  0  0  0  0  0  0  0  0  0  0  0
   -3.0512   -4.3964    2.6774 C   0  0  0  0  0  0  0  0  0  0  0  0
   -3.0018   -5.6914    2.1668 C   0  0  0  0  0  0  0  0  0  0  0  0
   -2.8821   -5.8841    0.7989 C   0  0  0  0  0  0  0  0  0  0  0  0
   -2.8083   -4.7806   -0.0537 C   0  0  0  0  0  0  0  0  0  0  0  0
   -2.8465   -3.4501    0.4335 C   0  0  0  0  0  0  0  0  0  0  0  0
   -2.7469   -2.2897   -0.4018 C   0  0  0  0  0  0  0  0  0  0  0  0
   -2.5500   -2.4489   -1.8773 C   0  0  0  0  0  0  0  0  0  0  0  0
   -3.6710   -2.4007   -2.7642 C   0  0  0  0  0  0  0  0  0  0  0  0
   -5.0091   -2.2230   -2.3338 C   0  0  0  0  0  0  0  0  0  0  0  0
   -6.0749   -2.1746   -3.2347 C   0  0  0  0  0  0  0  0  0  0  0  0
   -5.8347   -2.3048   -4.5945 C   0  0  0  0  0  0  0  0  0  0  0  0
   -4.5301   -2.4846   -5.0498 C   0  0  0  0  0  0  0  0  0  0  0  0
   -3.4484   -2.5351   -4.1533 C   0  0  0  0  0  0  0  0  0  0  0  0
   -2.1459   -2.7210   -4.6359 C   0  0  0  0  0  0  0  0  0  0  0  0
   -1.0399   -2.7856   -3.7781 C   0  0  0  0  0  0  0  0  0  0  0  0
    0.2531   -2.9926   -4.2910 C   0  0  0  0  0  0  0  0  0  0  0  0
    1.3808   -3.0885   -3.4567 C   0  0  0  0  0  0  0  0  0  0  0  0
    2.6537   -3.3136   -3.9982 C   0  0  0  0  0  0  0  0  0  0  0  0
    3.7921   -3.4360   -3.1897 C   0  0  0  0  0  0  0  0  0  0  0  0
    5.0499   -3.6644   -3.7745 C   0  0  0  0  0  0  0  0  0  0  0  0
    6.1949   -3.7958   -2.9912 C   0  0  0  0  0  0  0  0  0  0  0  0
    6.0964   -3.7023   -1.6107 C   0  0  0  0  0  0  0  0  0  0  0  0
    4.8527   -3.4771   -1.0173 C   0  0  0  0  0  0  0  0  0  0  0  0
    3.6711   -3.3348   -1.7855 C   0  0  0  0  0  0  0  0  0  0  0  0
    2.3799   -3.0975   -1.2198 C   0  0  0  0  0  0  0  0  0  0  0  0
    2.2093   -2.9990    0.2632 C   0  0  0  0  0  0  0  0  0  0  0  0
    1.8336   -4.1621    1.0124 C   0  0  0  0  0  0  0  0  0  0  0  0
    1.6582   -5.4478    0.4416 C   0  0  0  0  0  0  0  0  0  0  0  0
    1.2720   -6.5516    1.2050 C   0  0  0  0  0  0  0  0  0  0  0  0
    1.0511   -6.4047    2.5659 C   0  0  0  0  0  0  0  0  0  0  0  0
    1.2182   -5.1553    3.1587 C   0  0  0  0  0  0  0  0  0  0  0  0
    1.6061   -4.0368    2.4001 C   0  0  0  0  0  0  0  0  0  0  0  0
    1.7601   -2.7908    3.0193 C   0  0  0  0  0  0  0  0  0  0  0  0
    2.1358   -1.6473    2.3031 C   0  0  0  0  0  0  0  0  0  0  0  0
    2.2738   -0.4165    2.9688 C   0  0  0  0  0  0  0  0  0  0  0  0
    2.6424    0.7542    2.2893 C   0  0  0  0  0  0  0  0  0  0  0  0
    2.7819    1.9832    2.9569 C   0  0  0  0  0  0  0  0  0  0  0  0
    3.1511    3.1526    2.2708 C   0  0  0  0  0  0  0  0  0  0  0  0
    3.2915    4.3818    2.9375 C   0  0  0  0  0  0  0  0  0  0  0  0
    3.6613    5.5498    2.2502 C   0  0  0  0  0  0  0  0  0  0  0  0
    3.8023    6.7791    2.9154 C   0  0  0  0  0  0  0  0  0  0  0  0
    4.1708    7.9305    2.2177 C   0  0  0  0  0  0  0  0  0  0  0  0
    4.4031    7.8680    0.8473 C   0  0  0  0  0  0  0  0  0  0  0  0
    4.2671    6.6540    0.1724 C   0  0  0  0  0  0  0  0  0  0  0  0
    3.8967    5.4868    0.8604 C   0  0  0  0  0  0  0  0  0  0  0  0
    3.7557    4.2580    0.1951 C   0  0  0  0  0  0  0  0  0  0  0  0
    3.3859    3.0903    0.8836 C   0  0  0  0  0  0  0  0  0  0  0  0
    3.2451    1.8608    0.2187 C   0  0  0  0  0  0  0  0  0  0  0  0
    2.8760    0.6923    0.9069 C   0  0  0  0  0  0  0  0  0  0  0  0
    2.7339   -0.5395    0.2441 C   0  0  0  0  0  0  0  0  0  0  0  0
    2.3661   -1.7329    0.9152 C   0  0  0  0  0  0  0  0  0  0  0  0
    1.2314   -2.9664   -2.0660 C   0  0  0  0  0  0  0  0  0  0  0  0
   -0.0753   -2.7283   -1.5759 C   0  0  0  0  0  0  0  0  0  0  0  0
   -1.2282   -2.6479   -2.3932 C   0  0  0  0  0  0  0  0  0  0  0  0
   -2.8823    9.8990    1.2912 H   0  0  0  0  0  0  0  0  0  0  0  0
   -2.6027    9.7070   -1.1663 H   0  0  0  0  0  0  0  0  0  0  0  0
   -2.4820    7.4888   -2.2308 H   0  0  0  0  0  0  0  0  0  0  0  0
   -2.5053    5.0246   -2.0418 H   0  0  0  0  0  0  0  0  0  0  0  0
   -2.5302    2.5791   -1.8527 H   0  0  0  0  0  0  0  0  0  0  0  0
   -2.5621    0.1587   -1.6646 H   0  0  0  0  0  0  0  0  0  0  0  0
   -3.1176    0.5168    3.2349 H   0  0  0  0  0  0  0  0  0  0  0  0
   -3.0926    2.9613    3.0576 H   0  0  0  0  0  0  0  0  0  0  0  0
   -3.0667    5.4076    2.8725 H   0  0  0  0  0  0  0  0  0  0  0  0
   -3.0421    7.8718    2.6825 H   0  0  0  0  0  0  0  0  0  0  0  0
   -3.1233   -1.8708    3.4482 H   0  0  0  0  0  0  0  0  0  0  0  0
   -3.1445   -4.2654    3.7533 H   0  0  0  0  0  0  0  0  0  0  0  0
   -3.0540   -6.5446    2.8368 H   0  0  0  0  0  0  0  0  0  0  0  0
   -2.8399   -6.8892    0.3885 H   0  0  0  0  0  0  0  0  0  0  0  0
   -2.7110   -4.9750   -1.1200 H   0  0  0  0  0  0  0  0  0  0  0  0
   -5.2388   -2.1187   -1.2746 H   0  0  0  0  0  0  0  0  0  0  0  0
   -7.0883   -2.0352   -2.8675 H   0  0  0  0  0  0  0  0  0  0  0  0
   -6.6594   -2.2682   -5.3011 H   0  0  0  0  0  0  0  0  0  0  0  0
   -4.3635   -2.5869   -6.1203 H   0  0  0  0  0  0  0  0  0  0  0  0
   -1.9897   -2.8262   -5.7087 H   0  0  0  0  0  0  0  0  0  0  0  0
    0.3835   -3.0958   -5.3676 H   0  0  0  0  0  0  0  0  0  0  0  0
    2.7609   -3.4016   -5.0786 H   0  0  0  0  0  0  0  0  0  0  0  0
    5.1478   -3.7439   -4.8553 H   0  0  0  0  0  0  0  0  0  0  0  0
    7.1592   -3.9728   -3.4596 H   0  0  0  0  0  0  0  0  0  0  0  0
    6.9823   -3.8043   -0.9894 H   0  0  0  0  0  0  0  0  0  0  0  0
    4.8156   -3.4120    0.0688 H   0  0  0  0  0  0  0  0  0  0  0  0
    1.8186   -5.6050   -0.6234 H   0  0  0  0  0  0  0  0  0  0  0  0
    1.1412   -7.5195    0.7291 H   0  0  0  0  0  0  0  0  0  0  0  0
    0.7463   -7.2574    3.1655 H   0  0  0  0  0  0  0  0  0  0  0  0
    1.0359   -5.0582    4.2268 H   0  0  0  0  0  0  0  0  0  0  0  0
    1.5784   -2.7079    4.0900 H   0  0  0  0  0  0  0  0  0  0  0  0
    2.0835   -0.3679    4.0399 H   0  0  0  0  0  0  0  0  0  0  0  0
    2.6018    2.0295    4.0294 H   0  0  0  0  0  0  0  0  0  0  0  0
    3.1101    4.4307    4.0095 H   0  0  0  0  0  0  0  0  0  0  0  0
    3.6252    6.8484    3.9863 H   0  0  0  0  0  0  0  0  0  0  0  0
    4.2761    8.8748    2.7453 H   0  0  0  0  0  0  0  0  0  0  0  0
    4.6903    8.7632    0.3021 H   0  0  0  0  0  0  0  0  0  0  0  0
    4.4530    6.6240   -0.8990 H   0  0  0  0  0  0  0  0  0  0  0  0
    3.9375    4.2098   -0.8771 H   0  0  0  0  0  0  0  0  0  0  0  0
    3.4252    1.8106   -0.8539 H   0  0  0  0  0  0  0  0  0  0  0  0
    2.9154   -0.5649   -0.8294 H   0  0  0  0  0  0  0  0  0  0  0  0
   -0.2041   -2.6158   -0.5003 H   0  0  0  0  0  0  0  0  0  0  0  0
  1  2  4  0
  2  3  4  0
  3  4  4  0
  4  5  4  0
  5  6  4  0
  6  7  4  0
  7  8  4  0
  8  9  4  0
  9 10  4  0
 10 11  4  0
 11 12  4  0
 12 13  4  0
 13 14  4  0
 14 15  4  0
 15 16  4  0
 16 17  4  0
 17 18  4  0
 11 19  4  0
 19 20  4  0
 20 21  4  0
 21 22  4  0
 22 23  4  0
 23 24  4  0
 24 25  4  0
 25 26  4  0
 26 27  1  0
 27 28  4  0
 28 29  4  0
 29 30  4  0
 30 31  4  0
 31 32  4  0
 32 33  4  0
 33 34  4  0
 34 35  4  0
 35 36  4  0
 36 37  4  0
 37 38  4  0
 38 39  4  0
 39 40  4  0
 40 41  4  0
 41 42  4  0
 42 43  4  0
 43 44  4  0
 44 45  4  0
 45 46  1  0
 46 47  4  0
 47 48  4  0
 48 49  4  0
 49 50  4  0
 50 51  4  0
 51 52  4  0
 52 53  4  0
 53 54  4  0
 54 55  4  0
 55 56  4  0
 56 57  4  0
 57 58  4  0
 58 59  4  0
 59 60  4  0
 60 61  4  0
 61 62  4  0
 62 63  4  0
 63 64  4  0
 64 65  4  0
 65 66  4  0
 66 67  4  0
 67 68  4  0
 68 69  4  0
 69 70  4  0
 70 71  4  0
 45 72  4  0
 72 73  4  0
 73 74  4  0
 18  1  4  0
 25 20  4  0
 74 27  4  0
 17  4  4  0
 33 28  4  0
 74 35  4  0
 15  6  4  0
 72 37  4  0
 13  8  4  0
 44 39  4  0
 71 46  4  0
 26 10  4  0
 52 47  4  0
 71 54  4  0
 69 56  4  0
 67 58  4  0
 65 60  4  0
  1 75  1  0
  2 76  1  0
  3 77  1  0
  5 78  1  0
  7 79  1  0
  9 80  1  0
 12 81  1  0
 14 82  1  0
 16 83  1  0
 18 84  1  0
 19 85  1  0
 21 86  1  0
 22 87  1  0
 23 88  1  0
 24 89  1  0
 29 90  1  0
 30 91  1  0
 31 92  1  0
 32 93  1  0
 34 94  1  0
 36 95  1  0
 38 96  1  0
 40 97  1  0
 41 98  1  0
 42 99  1  0
 43100  1  0
 48101  1  0
 49102  1  0
 50103  1  0
 51104  1  0
 53105  1  0
 55106  1  0
 57107  1  0
 59108  1  0
 61109  1  0
 62110  1  0
 63111  1  0
 64112  1  0
 66113  1  0
 68114  1  0
 70115  1  0
 73116  1  0
M  END
