
     RDKit          3D

 92104  0  0  0  0  0  0  0  0999 V2000
    3.2597    5.5552   -1.6619 C   0  0  0  0  0  0  0  0  0  0  0  0
    3.1573    4.7409   -2.7852 C   0  0  0  0  0  0  0  0  0  0  0  0
    2.9901    3.3637   -2.6333 C   0  0  0  0  0  0  0  0  0  0  0  0
    2.9263    2.7831   -1.3554 C   0  0  0  0  0  0  0  0  0  0  0  0
    2.7662    1.3973   -1.1834 C   0  0  0  0  0  0  0  0  0  0  0  0
    2.7089    0.7853    0.0942 C   0  0  0  0  0  0  0  0  0  0  0  0
    2.8020    1.6307    1.2192 C   0  0  0  0  0  0  0  0  0  0  0  0
    2.9596    3.0187    1.0520 C   0  0  0  0  0  0  0  0  0  0  0  0
    3.0276    3.6062   -0.2198 C   0  0  0  0  0  0  0  0  0  0  0  0
    3.1937    4.9919   -0.3865 C   0  0  0  0  0  0  0  0  0  0  0  0
    2.7299    1.0855    2.5076 C   0  0  0  0  0  0  0  0  0  0  0  0
    2.5802   -0.2895    2.7246 C   0  0  0  0  0  0  0  0  0  0  0  0
    2.4944   -0.7883    4.0365 C   0  0  0  0  0  0  0  0  0  0  0  0
    2.3399   -2.1509    4.2805 C   0  0  0  0  0  0  0  0  0  0  0  0
    2.2821   -3.0351    3.2142 C   0  0  0  0  0  0  0  0  0  0  0  0
    2.3633   -2.5507    1.9067 C   0  0  0  0  0  0  0  0  0  0  0  0
    2.5051   -1.1688    1.6226 C   0  0  0  0  0  0  0  0  0  0  0  0
    2.5567   -0.6253    0.2963 C   0  0  0  0  0  0  0  0  0  0  0  0
    2.3893   -1.5328   -0.8828 C   0  0  0  0  0  0  0  0  0  0  0  0
    3.5326   -2.0568   -1.5620 C   0  0  0  0  0  0  0  0  0  0  0  0
    4.8686   -1.7616   -1.1956 C   0  0  0  0  0  0  0  0  0  0  0  0
    5.9585   -2.2877   -1.8919 C   0  0  0  0  0  0  0  0  0  0  0  0
    5.7447   -3.1296   -2.9736 C   0  0  0  0  0  0  0  0  0  0  0  0
    4.4417   -3.4438   -3.3554 C   0  0  0  0  0  0  0  0  0  0  0  0
    3.3355   -2.9201   -2.6635 C   0  0  0  0  0  0  0  0  0  0  0  0
    2.0342   -3.2583   -3.0607 C   0  0  0  0  0  0  0  0  0  0  0  0
    0.9038   -2.7631   -2.3962 C   0  0  0  0  0  0  0  0  0  0  0  0
   -0.3903   -3.1436   -2.7960 C   0  0  0  0  0  0  0  0  0  0  0  0
   -1.5432   -2.6870   -2.1315 C   0  0  0  0  0  0  0  0  0  0  0  0
   -2.8174   -3.1139   -2.5304 C   0  0  0  0  0  0  0  0  0  0  0  0
   -3.9806   -2.6962   -1.8684 C   0  0  0  0  0  0  0  0  0  0  0  0
   -5.2383   -3.1575   -2.2950 C   0  0  0  0  0  0  0  0  0  0  0  0
   -6.4074   -2.7617   -1.6479 C   0  0  0  0  0  0  0  0  0  0  0  0
   -6.3339   -1.9004   -0.5629 C   0  0  0  0  0  0  0  0  0  0  0  0
   -5.0911   -1.4349   -0.1293 C   0  0  0  0  0  0  0  0  0  0  0  0
   -3.8852   -1.8133   -0.7687 C   0  0  0  0  0  0  0  0  0  0  0  0
   -2.5943   -1.3526   -0.3636 C   0  0  0  0  0  0  0  0  0  0  0  0
   -2.4504   -0.4004    0.7829 C   0  0  0  0  0  0  0  0  0  0  0  0
   -2.1031   -0.8988    2.0815 C   0  0  0  0  0  0  0  0  0  0  0  0
   -1.9593   -2.2754    2.3873 C   0  0  0  0  0  0  0  0  0  0  0  0
   -1.5719   -2.7166    3.6541 C   0  0  0  0  0  0  0  0  0  0  0  0
   -1.3188   -1.7934    4.6572 C   0  0  0  0  0  0  0  0  0  0  0  0
   -1.4699   -0.4339    4.3950 C   0  0  0  0  0  0  0  0  0  0  0  0
   -1.8612    0.0219    3.1240 C   0  0  0  0  0  0  0  0  0  0  0  0
   -1.9966    1.3946    2.8846 C   0  0  0  0  0  0  0  0  0  0  0  0
   -2.3609    1.8973    1.6289 C   0  0  0  0  0  0  0  0  0  0  0  0
   -2.4889    3.2853    1.4388 C   0  0  0  0  0  0  0  0  0  0  0  0
   -2.8436    3.8309    0.1964 C   0  0  0  0  0  0  0  0  0  0  0  0
   -2.9780    5.2172    0.0095 C   0  0  0  0  0  0  0  0  0  0  0  0
   -3.3368    5.7381   -1.2346 C   0  0  0  0  0  0  0  0  0  0  0  0
   -3.5626    4.8805   -2.3066 C   0  0  0  0  0  0  0  0  0  0  0  0
   -3.4281    3.5021   -2.1351 C   0  0  0  0  0  0  0  0  0  0  0  0
   -3.0693    2.9643   -0.8876 C   0  0  0  0  0  0  0  0  0  0  0  0
   -2.9320    1.5789   -0.6947 C   0  0  0  0  0  0  0  0  0  0  0  0
   -2.5870    1.0090    0.5573 C   0  0  0  0  0  0  0  0  0  0  0  0
   -1.4184   -1.8000   -1.0505 C   0  0  0  0  0  0  0  0  0  0  0  0
   -0.1073   -1.4076   -0.6878 C   0  0  0  0  0  0  0  0  0  0  0  0
    1.0687   -1.8861   -1.3126 C   0  0  0  0  0  0  0  0  0  0  0  0
    3.3894    6.6279   -1.7770 H   0  0  0  0  0  0  0  0  0  0  0  0
    3.2059    5.1739   -3.7806 H   0  0  0  0  0  0  0  0  0  0  0  0
    2.9089    2.7413   -3.5218 H   0  0  0  0  0  0  0  0  0  0  0  0
    2.6867    0.7796   -2.0767 H   0  0  0  0  0  0  0  0  0  0  0  0
    3.0322    3.6572    1.9309 H   0  0  0  0  0  0  0  0  0  0  0  0
    3.2743    5.6434    0.4804 H   0  0  0  0  0  0  0  0  0  0  0  0
    2.7880    1.7507    3.3680 H   0  0  0  0  0  0  0  0  0  0  0  0
    2.5328   -0.1109    4.8868 H   0  0  0  0  0  0  0  0  0  0  0  0
    2.2518   -2.5146    5.3000 H   0  0  0  0  0  0  0  0  0  0  0  0
    2.1600   -4.1002    3.3904 H   0  0  0  0  0  0  0  0  0  0  0  0
    2.3040   -3.2763    1.0977 H   0  0  0  0  0  0  0  0  0  0  0  0
    5.0764   -1.1065   -0.3509 H   0  0  0  0  0  0  0  0  0  0  0  0
    6.9701   -2.0352   -1.5850 H   0  0  0  0  0  0  0  0  0  0  0  0
    6.5886   -3.5422   -3.5200 H   0  0  0  0  0  0  0  0  0  0  0  0
    4.2954   -4.1075   -4.2051 H   0  0  0  0  0  0  0  0  0  0  0  0
    1.8971   -3.9321   -3.9051 H   0  0  0  0  0  0  0  0  0  0  0  0
   -0.5024   -3.8281   -3.6356 H   0  0  0  0  0  0  0  0  0  0  0  0
   -2.9053   -3.7985   -3.3729 H   0  0  0  0  0  0  0  0  0  0  0  0
   -5.3184   -3.8363   -3.1418 H   0  0  0  0  0  0  0  0  0  0  0  0
   -7.3716   -3.1279   -1.9903 H   0  0  0  0  0  0  0  0  0  0  0  0
   -7.2394   -1.5871   -0.0497 H   0  0  0  0  0  0  0  0  0  0  0  0
   -5.0725   -0.7628    0.7273 H   0  0  0  0  0  0  0  0  0  0  0  0
   -2.1374   -3.0310    1.6245 H   0  0  0  0  0  0  0  0  0  0  0  0
   -1.4546   -3.7795    3.8446 H   0  0  0  0  0  0  0  0  0  0  0  0
   -0.9892   -2.1258    5.6372 H   0  0  0  0  0  0  0  0  0  0  0  0
   -1.2607    0.2748    5.1930 H   0  0  0  0  0  0  0  0  0  0  0  0
   -1.8070    2.0921    3.6991 H   0  0  0  0  0  0  0  0  0  0  0  0
   -2.3081    3.9572    2.2761 H   0  0  0  0  0  0  0  0  0  0  0  0
   -2.8019    5.9026    0.8354 H   0  0  0  0  0  0  0  0  0  0  0  0
   -3.4391    6.8122   -1.3649 H   0  0  0  0  0  0  0  0  0  0  0  0
   -3.8434    5.2819   -3.2767 H   0  0  0  0  0  0  0  0  0  0  0  0
   -3.6077    2.8460   -2.9841 H   0  0  0  0  0  0  0  0  0  0  0  0
   -3.1031    0.9270   -1.5498 H   0  0  0  0  0  0  0  0  0  0  0  0
    0.0054   -0.7082    0.1392 H   0  0  0  0  0  0  0  0  0  0  0  0
  1  2  4  0
  2  3  4  0
  3  4  4  0
  4  5  4  0
  5  6  4  0
  6  7  4  0
  7  8  4  0
  8  9  4  0
  9 10  4  0
  7 11  4  0
 11 12  4  0
 12 13  4  0
 13 14  4  0
 14 15  4  0
 15 16  4  0
 16 17  4  0
 17 18  4  0
 18 19  1  0
 19 20  4  0
 20 21  4  0
 21 22  4  0
 22 23  4  0
 23 24  4  0
 24 25  4  0
 25 26  4  0
 26 27  4  0
 27 28  4  0
 28 29  4  0
 29 30  4  0
 30 31  4  0
 31 32  4  0
 32 33  4  0
 33 34  4  0
 34 35  4  0
 35 36  4  0
 36 37  4  0
 37 38  1  0
 38 39  4  0
 39 40  4  0
 40 41  4  0
 41 42  4  0
 42 43  4  0
 43 44  4  0
 44 45  4  0
 45 46  4  0
 46 47  4  0
 47 48  4  0
 48 49  4  0
 49 50  4  0
 50 51  4  0
 51 52  4  0
 52 53  4  0
 53 54  4  0
 54 55  4  0
 37 56  4  0
 56 57  4  0
 57 58  4  0
 10  1  4  0
 17 12  4  0
 58 19  4  0
  9  4  4  0
 25 20  4  0
 58 27  4  0
 18  6  4  0
 56 29  4  0
 36 31  4  0
 55 38  4  0
 44 39  4  0
 55 46  4  0
 53 48  4  0
  1 59  1  0
  2 60  1  0
  3 61  1  0
  5 62  1  0
  8 63  1  0
 10 64  1  0
 11 65  1  0
 13 66  1  0
 14 67  1  0
 15 68  1  0
 16 69  1  0
 21 70  1  0
 22 71  1  0
 23 72  1  0
 24 73  1  0
 26 74  1  0
 28 75  1  0
 30 76  1  0
 32 77  1  0
 33 78  1  0
 34 79  1  0
 35 80  1  0
 40 81  1  0
 41 82  1  0
 42 83  1  0
 43 84  1  0
 45 85  1  0
 47 86  1  0
 49 87  1  0
 50 88  1  0
 51 89  1  0
 52 90  1  0
 54 91  1  0
 57 92  1  0
M  END
