
     RDKit          3D

 92104  0  0  0  0  0  0  0  0999 V2000
    3.7058    7.2329    2.1476 C   0  0  0  0  0  0  0  0  0  0  0  0
    4.6635    6.9390    1.1821 C   0  0  0  0  0  0  0  0  0  0  0  0
    4.7891    5.6354    0.6994 C   0  0  0  0  0  0  0  0  0  0  0  0
    3.9575    4.6087    1.1769 C   0  0  0  0  0  0  0  0  0  0  0  0
    4.0710    3.2919    0.7009 C   0  0  0  0  0  0  0  0  0  0  0  0
    3.2389    2.2651    1.1788 C   0  0  0  0  0  0  0  0  0  0  0  0
    3.3507    0.9485    0.7005 C   0  0  0  0  0  0  0  0  0  0  0  0
    2.5175   -0.0776    1.1762 C   0  0  0  0  0  0  0  0  0  0  0  0
    2.6199   -1.3912    0.6869 C   0  0  0  0  0  0  0  0  0  0  0  0
    1.7729   -2.4117    1.1498 C   0  0  0  0  0  0  0  0  0  0  0  0
    1.8390   -3.7701    0.5663 C   0  0  0  0  0  0  0  0  0  0  0  0
    2.6685   -4.7717    1.1587 C   0  0  0  0  0  0  0  0  0  0  0  0
    3.4695   -4.5534    2.3071 C   0  0  0  0  0  0  0  0  0  0  0  0
    4.2658   -5.5615    2.8554 C   0  0  0  0  0  0  0  0  0  0  0  0
    4.2854   -6.8195    2.2711 C   0  0  0  0  0  0  0  0  0  0  0  0
    3.5098   -7.0660    1.1400 C   0  0  0  0  0  0  0  0  0  0  0  0
    2.7044   -6.0599    0.5780 C   0  0  0  0  0  0  0  0  0  0  0  0
    1.9348   -6.3325   -0.5609 C   0  0  0  0  0  0  0  0  0  0  0  0
    1.1189   -5.3597   -1.1539 C   0  0  0  0  0  0  0  0  0  0  0  0
    0.3593   -5.6635   -2.2975 C   0  0  0  0  0  0  0  0  0  0  0  0
   -0.4676   -4.7120   -2.9204 C   0  0  0  0  0  0  0  0  0  0  0  0
   -1.2098   -5.0504   -4.0596 C   0  0  0  0  0  0  0  0  0  0  0  0
   -2.0403   -4.1240   -4.7041 C   0  0  0  0  0  0  0  0  0  0  0  0
   -2.7674   -4.5069   -5.8447 C   0  0  0  0  0  0  0  0  0  0  0  0
   -3.5986   -3.6045   -6.5052 C   0  0  0  0  0  0  0  0  0  0  0  0
   -3.7130   -2.3052   -6.0332 C   0  0  0  0  0  0  0  0  0  0  0  0
   -2.9962   -1.9122   -4.9008 C   0  0  0  0  0  0  0  0  0  0  0  0
   -2.1439   -2.8057   -4.2052 C   0  0  0  0  0  0  0  0  0  0  0  0
   -1.3942   -2.4467   -3.0425 C   0  0  0  0  0  0  0  0  0  0  0  0
   -1.4806   -1.0756   -2.4921 C   0  0  0  0  0  0  0  0  0  0  0  0
   -2.4636   -0.7456   -1.5449 C   0  0  0  0  0  0  0  0  0  0  0  0
   -2.5222    0.5344   -0.9676 C   0  0  0  0  0  0  0  0  0  0  0  0
   -3.4991    0.8634   -0.0137 C   0  0  0  0  0  0  0  0  0  0  0  0
   -3.5547    2.1411    0.5684 C   0  0  0  0  0  0  0  0  0  0  0  0
   -4.5335    2.4693    1.5216 C   0  0  0  0  0  0  0  0  0  0  0  0
   -4.5907    3.7465    2.1036 C   0  0  0  0  0  0  0  0  0  0  0  0
   -5.5688    4.0754    3.0570 C   0  0  0  0  0  0  0  0  0  0  0  0
   -5.6124    5.3494    3.6257 C   0  0  0  0  0  0  0  0  0  0  0  0
   -4.6795    6.3103    3.2487 C   0  0  0  0  0  0  0  0  0  0  0  0
   -3.7017    5.9989    2.3027 C   0  0  0  0  0  0  0  0  0  0  0  0
   -3.6446    4.7212    1.7216 C   0  0  0  0  0  0  0  0  0  0  0  0
   -2.6663    4.3923    0.7685 C   0  0  0  0  0  0  0  0  0  0  0  0
   -2.6090    3.1136    0.1881 C   0  0  0  0  0  0  0  0  0  0  0  0
   -1.6294    2.7837   -0.7639 C   0  0  0  0  0  0  0  0  0  0  0  0
   -1.5756    1.5076   -1.3480 C   0  0  0  0  0  0  0  0  0  0  0  0
   -0.5981    1.1801   -2.2997 C   0  0  0  0  0  0  0  0  0  0  0  0
   -0.5534   -0.0951   -2.8676 C   0  0  0  0  0  0  0  0  0  0  0  0
   -0.5524   -3.4107   -2.3984 C   0  0  0  0  0  0  0  0  0  0  0  0
    0.2177   -3.1307   -1.2422 C   0  0  0  0  0  0  0  0  0  0  0  0
    1.0610   -4.0707   -0.5987 C   0  0  0  0  0  0  0  0  0  0  0  0
    0.8248   -2.1035    2.1335 C   0  0  0  0  0  0  0  0  0  0  0  0
    0.7146   -0.8033    2.6312 C   0  0  0  0  0  0  0  0  0  0  0  0
    1.5498    0.2200    2.1574 C   0  0  0  0  0  0  0  0  0  0  0  0
    1.4379    1.5360    2.6348 C   0  0  0  0  0  0  0  0  0  0  0  0
    2.2700    2.5627    2.1572 C   0  0  0  0  0  0  0  0  0  0  0  0
    2.1553    3.8799    2.6335 C   0  0  0  0  0  0  0  0  0  0  0  0
    2.9864    4.9068    2.1562 C   0  0  0  0  0  0  0  0  0  0  0  0
    2.8722    6.2237    2.6320 C   0  0  0  0  0  0  0  0  0  0  0  0
    3.6062    8.2473    2.5248 H   0  0  0  0  0  0  0  0  0  0  0  0
    5.3137    7.7233    0.8035 H   0  0  0  0  0  0  0  0  0  0  0  0
    5.5439    5.4260   -0.0552 H   0  0  0  0  0  0  0  0  0  0  0  0
    4.8201    3.0629   -0.0549 H   0  0  0  0  0  0  0  0  0  0  0  0
    4.0960    0.7185   -0.0589 H   0  0  0  0  0  0  0  0  0  0  0  0
    3.3530   -1.6254   -0.0834 H   0  0  0  0  0  0  0  0  0  0  0  0
    3.4819   -3.5796    2.7936 H   0  0  0  0  0  0  0  0  0  0  0  0
    4.8675   -5.3581    3.7374 H   0  0  0  0  0  0  0  0  0  0  0  0
    4.9024   -7.6083    2.6925 H   0  0  0  0  0  0  0  0  0  0  0  0
    3.5394   -8.0593    0.6964 H   0  0  0  0  0  0  0  0  0  0  0  0
    1.9726   -7.3293   -0.9985 H   0  0  0  0  0  0  0  0  0  0  0  0
    0.4140   -6.6683   -2.7151 H   0  0  0  0  0  0  0  0  0  0  0  0
   -1.1390   -6.0625   -4.4562 H   0  0  0  0  0  0  0  0  0  0  0  0
   -2.6908   -5.5213   -6.2307 H   0  0  0  0  0  0  0  0  0  0  0  0
   -4.1539   -3.9173   -7.3851 H   0  0  0  0  0  0  0  0  0  0  0  0
   -4.3578   -1.5927   -6.5410 H   0  0  0  0  0  0  0  0  0  0  0  0
   -3.1120   -0.8840   -4.5622 H   0  0  0  0  0  0  0  0  0  0  0  0
   -3.1815   -1.5078   -1.2454 H   0  0  0  0  0  0  0  0  0  0  0  0
   -4.2291    0.1112    0.2806 H   0  0  0  0  0  0  0  0  0  0  0  0
   -5.2639    1.7174    1.8150 H   0  0  0  0  0  0  0  0  0  0  0  0
   -6.3066    3.3377    3.3646 H   0  0  0  0  0  0  0  0  0  0  0  0
   -6.3746    5.5896    4.3623 H   0  0  0  0  0  0  0  0  0  0  0  0
   -4.7112    7.3030    3.6901 H   0  0  0  0  0  0  0  0  0  0  0  0
   -2.9811    6.7634    2.0211 H   0  0  0  0  0  0  0  0  0  0  0  0
   -1.9384    5.1459    0.4728 H   0  0  0  0  0  0  0  0  0  0  0  0
   -0.8948    3.5323   -1.0551 H   0  0  0  0  0  0  0  0  0  0  0  0
    0.1466    1.9142   -2.5995 H   0  0  0  0  0  0  0  0  0  0  0  0
    0.2233   -0.3293   -3.5928 H   0  0  0  0  0  0  0  0  0  0  0  0
    0.1579   -2.1279   -0.8213 H   0  0  0  0  0  0  0  0  0  0  0  0
    0.1515   -2.8749    2.5017 H   0  0  0  0  0  0  0  0  0  0  0  0
   -0.0416   -0.5926    3.3841 H   0  0  0  0  0  0  0  0  0  0  0  0
    0.6858    1.7657    3.3874 H   0  0  0  0  0  0  0  0  0  0  0  0
    1.4052    4.1101    3.3880 H   0  0  0  0  0  0  0  0  0  0  0  0
    2.1299    6.4736    3.3869 H   0  0  0  0  0  0  0  0  0  0  0  0
  1  2  4  0
  2  3  4  0
  3  4  4  0
  4  5  4  0
  5  6  4  0
  6  7  4  0
  7  8  4  0
  8  9  4  0
  9 10  4  0
 10 11  1  0
 11 12  4  0
 12 13  4  0
 13 14  4  0
 14 15  4  0
 15 16  4  0
 16 17  4  0
 17 18  4  0
 18 19  4  0
 19 20  4  0
 20 21  4  0
 21 22  4  0
 22 23  4  0
 23 24  4  0
 24 25  4  0
 25 26  4  0
 26 27  4  0
 27 28  4  0
 28 29  4  0
 29 30  1  0
 30 31  4  0
 31 32  4  0
 32 33  4  0
 33 34  4  0
 34 35  4  0
 35 36  4  0
 36 37  4  0
 37 38  4  0
 38 39  4  0
 39 40  4  0
 40 41  4  0
 41 42  4  0
 42 43  4  0
 43 44  4  0
 44 45  4  0
 45 46  4  0
 46 47  4  0
 29 48  4  0
 48 49  4  0
 49 50  4  0
 10 51  4  0
 51 52  4  0
 52 53  4  0
 53 54  4  0
 54 55  4  0
 55 56  4  0
 56 57  4  0
 57 58  4  0
 58  1  4  0
 57  4  4  0
 55  6  4  0
 53  8  4  0
 50 11  4  0
 17 12  4  0
 50 19  4  0
 48 21  4  0
 28 23  4  0
 47 30  4  0
 45 32  4  0
 43 34  4  0
 41 36  4  0
  1 59  1  0
  2 60  1  0
  3 61  1  0
  5 62  1  0
  7 63  1  0
  9 64  1  0
 13 65  1  0
 14 66  1  0
 15 67  1  0
 16 68  1  0
 18 69  1  0
 20 70  1  0
 22 71  1  0
 24 72  1  0
 25 73  1  0
 26 74  1  0
 27 75  1  0
 31 76  1  0
 33 77  1  0
 35 78  1  0
 37 79  1  0
 38 80  1  0
 39 81  1  0
 40 82  1  0
 42 83  1  0
 44 84  1  0
 46 85  1  0
 47 86  1  0
 49 87  1  0
 51 88  1  0
 52 89  1  0
 54 90  1  0
 56 91  1  0
 58 92  1  0
M  END
