
     RDKit          3D

 92104  0  0  0  0  0  0  0  0999 V2000
    3.5277    1.0156   -4.5883 C   0  0  0  0  0  0  0  0  0  0  0  0
    3.4247   -0.3308   -4.2744 C   0  0  0  0  0  0  0  0  0  0  0  0
    3.1198   -0.7166   -2.9671 C   0  0  0  0  0  0  0  0  0  0  0  0
    2.9087    0.2288   -1.9314 C   0  0  0  0  0  0  0  0  0  0  0  0
    3.0159    1.5936   -2.2756 C   0  0  0  0  0  0  0  0  0  0  0  0
    3.3245    1.9707   -3.5948 C   0  0  0  0  0  0  0  0  0  0  0  0
    2.8089    2.5745   -1.2991 C   0  0  0  0  0  0  0  0  0  0  0  0
    2.4861    2.2486    0.0239 C   0  0  0  0  0  0  0  0  0  0  0  0
    2.2758    3.2744    0.9624 C   0  0  0  0  0  0  0  0  0  0  0  0
    1.9359    2.9987    2.2938 C   0  0  0  0  0  0  0  0  0  0  0  0
    1.7280    4.0272    3.2295 C   0  0  0  0  0  0  0  0  0  0  0  0
    1.3820    3.7324    4.5488 C   0  0  0  0  0  0  0  0  0  0  0  0
    1.2344    2.4073    4.9455 C   0  0  0  0  0  0  0  0  0  0  0  0
    1.4391    1.3773    4.0252 C   0  0  0  0  0  0  0  0  0  0  0  0
    1.7972    1.6584    2.6959 C   0  0  0  0  0  0  0  0  0  0  0  0
    2.0186    0.6346    1.7558 C   0  0  0  0  0  0  0  0  0  0  0  0
    2.3680    0.8959    0.4063 C   0  0  0  0  0  0  0  0  0  0  0  0
    2.5899   -0.1238   -0.5778 C   0  0  0  0  0  0  0  0  0  0  0  0
    2.4558   -1.5690   -0.2098 C   0  0  0  0  0  0  0  0  0  0  0  0
    3.6101   -2.3271    0.1624 C   0  0  0  0  0  0  0  0  0  0  0  0
    4.9131   -1.7795    0.2604 C   0  0  0  0  0  0  0  0  0  0  0  0
    6.0161   -2.5564    0.6208 C   0  0  0  0  0  0  0  0  0  0  0  0
    5.8489   -3.9060    0.8944 C   0  0  0  0  0  0  0  0  0  0  0  0
    4.5796   -4.4747    0.8083 C   0  0  0  0  0  0  0  0  0  0  0  0
    3.4608   -3.7035    0.4473 C   0  0  0  0  0  0  0  0  0  0  0  0
    2.1947   -4.2992    0.3652 C   0  0  0  0  0  0  0  0  0  0  0  0
    1.0518   -3.5655    0.0192 C   0  0  0  0  0  0  0  0  0  0  0  0
   -0.2087   -4.1869   -0.0456 C   0  0  0  0  0  0  0  0  0  0  0  0
   -1.3791   -3.4705   -0.3542 C   0  0  0  0  0  0  0  0  0  0  0  0
   -2.6246   -4.1123   -0.3922 C   0  0  0  0  0  0  0  0  0  0  0  0
   -3.8107   -3.4144   -0.6606 C   0  0  0  0  0  0  0  0  0  0  0  0
   -5.0394   -4.0968   -0.6847 C   0  0  0  0  0  0  0  0  0  0  0  0
   -6.2329   -3.4214   -0.9323 C   0  0  0  0  0  0  0  0  0  0  0  0
   -6.2138   -2.0525   -1.1565 C   0  0  0  0  0  0  0  0  0  0  0  0
   -4.9999   -1.3628   -1.1360 C   0  0  0  0  0  0  0  0  0  0  0  0
   -3.7694   -2.0211   -0.8943 C   0  0  0  0  0  0  0  0  0  0  0  0
   -2.5055   -1.3555   -0.8684 C   0  0  0  0  0  0  0  0  0  0  0  0
   -2.4214    0.1266   -1.0553 C   0  0  0  0  0  0  0  0  0  0  0  0
   -2.3811    0.9786    0.0980 C   0  0  0  0  0  0  0  0  0  0  0  0
   -2.4911    0.5054    1.4304 C   0  0  0  0  0  0  0  0  0  0  0  0
   -2.4070    1.3529    2.5475 C   0  0  0  0  0  0  0  0  0  0  0  0
   -2.5033    0.8542    3.8574 C   0  0  0  0  0  0  0  0  0  0  0  0
   -2.4069    1.7095    4.9553 C   0  0  0  0  0  0  0  0  0  0  0  0
   -2.2188    3.0737    4.7570 C   0  0  0  0  0  0  0  0  0  0  0  0
   -2.1234    3.5821    3.4606 C   0  0  0  0  0  0  0  0  0  0  0  0
   -2.2149    2.7308    2.3463 C   0  0  0  0  0  0  0  0  0  0  0  0
   -2.1169    3.2179    1.0344 C   0  0  0  0  0  0  0  0  0  0  0  0
   -2.1995    2.3647   -0.0811 C   0  0  0  0  0  0  0  0  0  0  0  0
   -2.0878    2.8885   -1.3754 C   0  0  0  0  0  0  0  0  0  0  0  0
   -2.1405    2.0737   -2.5134 C   0  0  0  0  0  0  0  0  0  0  0  0
   -2.0169    2.6444   -3.7923 C   0  0  0  0  0  0  0  0  0  0  0  0
   -2.0478    1.8540   -4.9391 C   0  0  0  0  0  0  0  0  0  0  0  0
   -2.2013    0.4807   -4.8212 C   0  0  0  0  0  0  0  0  0  0  0  0
   -2.3262   -0.0977   -3.5564 C   0  0  0  0  0  0  0  0  0  0  0  0
   -2.3038    0.6780   -2.3709 C   0  0  0  0  0  0  0  0  0  0  0  0
   -1.3041   -2.0928   -0.6125 C   0  0  0  0  0  0  0  0  0  0  0  0
   -0.0195   -1.4994   -0.5846 C   0  0  0  0  0  0  0  0  0  0  0  0
    1.1692   -2.1947   -0.2639 C   0  0  0  0  0  0  0  0  0  0  0  0
    3.7620    1.3239   -5.6031 H   0  0  0  0  0  0  0  0  0  0  0  0
    3.5775   -1.0861   -5.0406 H   0  0  0  0  0  0  0  0  0  0  0  0
    3.0443   -1.7833   -2.7644 H   0  0  0  0  0  0  0  0  0  0  0  0
    3.4052    3.0224   -3.8613 H   0  0  0  0  0  0  0  0  0  0  0  0
    2.8942    3.6235   -1.5800 H   0  0  0  0  0  0  0  0  0  0  0  0
    2.3734    4.3122    0.6487 H   0  0  0  0  0  0  0  0  0  0  0  0
    1.8337    5.0687    2.9343 H   0  0  0  0  0  0  0  0  0  0  0  0
    1.2228    4.5363    5.2625 H   0  0  0  0  0  0  0  0  0  0  0  0
    0.9549    2.1716    5.9688 H   0  0  0  0  0  0  0  0  0  0  0  0
    1.3050    0.3490    4.3521 H   0  0  0  0  0  0  0  0  0  0  0  0
    1.9038   -0.3954    2.0897 H   0  0  0  0  0  0  0  0  0  0  0  0
    5.0839   -0.7241    0.0543 H   0  0  0  0  0  0  0  0  0  0  0  0
    7.0015   -2.1022    0.6858 H   0  0  0  0  0  0  0  0  0  0  0  0
    6.7031   -4.5164    1.1745 H   0  0  0  0  0  0  0  0  0  0  0  0
    4.4699   -5.5350    1.0273 H   0  0  0  0  0  0  0  0  0  0  0  0
    2.0952   -5.3616    0.5837 H   0  0  0  0  0  0  0  0  0  0  0  0
   -0.2830   -5.2527    0.1659 H   0  0  0  0  0  0  0  0  0  0  0  0
   -2.6735   -5.1832   -0.1994 H   0  0  0  0  0  0  0  0  0  0  0  0
   -5.0769   -5.1696   -0.5064 H   0  0  0  0  0  0  0  0  0  0  0  0
   -7.1741   -3.9641   -0.9468 H   0  0  0  0  0  0  0  0  0  0  0  0
   -7.1390   -1.5154   -1.3477 H   0  0  0  0  0  0  0  0  0  0  0  0
   -5.0252   -0.2892   -1.3153 H   0  0  0  0  0  0  0  0  0  0  0  0
   -2.6362   -0.5584    1.6106 H   0  0  0  0  0  0  0  0  0  0  0  0
   -2.6519   -0.2094    4.0300 H   0  0  0  0  0  0  0  0  0  0  0  0
   -2.4804    1.3094    5.9630 H   0  0  0  0  0  0  0  0  0  0  0  0
   -2.1439    3.7428    5.6098 H   0  0  0  0  0  0  0  0  0  0  0  0
   -1.9709    4.6502    3.3248 H   0  0  0  0  0  0  0  0  0  0  0  0
   -1.9568    4.2839    0.8827 H   0  0  0  0  0  0  0  0  0  0  0  0
   -1.9458    3.9612   -1.4994 H   0  0  0  0  0  0  0  0  0  0  0  0
   -1.8893    3.7190   -3.9050 H   0  0  0  0  0  0  0  0  0  0  0  0
   -1.9476    2.3110   -5.9196 H   0  0  0  0  0  0  0  0  0  0  0  0
   -2.2217   -0.1466   -5.7082 H   0  0  0  0  0  0  0  0  0  0  0  0
   -2.4405   -1.1790   -3.5061 H   0  0  0  0  0  0  0  0  0  0  0  0
    0.0569   -0.4362   -0.8079 H   0  0  0  0  0  0  0  0  0  0  0  0
  1  2  4  0
  2  3  4  0
  3  4  4  0
  4  5  4  0
  5  6  4  0
  5  7  4  0
  7  8  4  0
  8  9  4  0
  9 10  4  0
 10 11  4  0
 11 12  4  0
 12 13  4  0
 13 14  4  0
 14 15  4  0
 15 16  4  0
 16 17  4  0
 17 18  4  0
 18 19  1  0
 19 20  4  0
 20 21  4  0
 21 22  4  0
 22 23  4  0
 23 24  4  0
 24 25  4  0
 25 26  4  0
 26 27  4  0
 27 28  4  0
 28 29  4  0
 29 30  4  0
 30 31  4  0
 31 32  4  0
 32 33  4  0
 33 34  4  0
 34 35  4  0
 35 36  4  0
 36 37  4  0
 37 38  1  0
 38 39  4  0
 39 40  4  0
 40 41  4  0
 41 42  4  0
 42 43  4  0
 43 44  4  0
 44 45  4  0
 45 46  4  0
 46 47  4  0
 47 48  4  0
 48 49  4  0
 49 50  4  0
 50 51  4  0
 51 52  4  0
 52 53  4  0
 53 54  4  0
 54 55  4  0
 37 56  4  0
 56 57  4  0
 57 58  4  0
  6  1  4  0
 17  8  4  0
 58 19  4  0
 18  4  4  0
 25 20  4  0
 58 27  4  0
 15 10  4  0
 56 29  4  0
 36 31  4  0
 55 38  4  0
 48 39  4  0
 55 50  4  0
 46 41  4  0
  1 59  1  0
  2 60  1  0
  3 61  1  0
  6 62  1  0
  7 63  1  0
  9 64  1  0
 11 65  1  0
 12 66  1  0
 13 67  1  0
 14 68  1  0
 16 69  1  0
 21 70  1  0
 22 71  1  0
 23 72  1  0
 24 73  1  0
 26 74  1  0
 28 75  1  0
 30 76  1  0
 32 77  1  0
 33 78  1  0
 34 79  1  0
 35 80  1  0
 40 81  1  0
 42 82  1  0
 43 83  1  0
 44 84  1  0
 45 85  1  0
 47 86  1  0
 49 87  1  0
 51 88  1  0
 52 89  1  0
 53 90  1  0
 54 91  1  0
 57 92  1  0
M  END
