
     RDKit          3D

 92104  0  0  0  0  0  0  0  0999 V2000
   -8.6239    2.1037    3.0627 C   0  0  0  0  0  0  0  0  0  0  0  0
   -7.5944    2.8237    2.4546 C   0  0  0  0  0  0  0  0  0  0  0  0
   -6.5792    2.1637    1.7422 C   0  0  0  0  0  0  0  0  0  0  0  0
   -5.5374    2.8731    1.1221 C   0  0  0  0  0  0  0  0  0  0  0  0
   -4.5237    2.2112    0.4077 C   0  0  0  0  0  0  0  0  0  0  0  0
   -3.4840    2.9170   -0.2173 C   0  0  0  0  0  0  0  0  0  0  0  0
   -2.4717    2.2588   -0.9365 C   0  0  0  0  0  0  0  0  0  0  0  0
   -1.4477    2.9974   -1.5488 C   0  0  0  0  0  0  0  0  0  0  0  0
   -0.4363    2.3642   -2.2653 C   0  0  0  0  0  0  0  0  0  0  0  0
   -0.4372    0.9792   -2.3818 C   0  0  0  0  0  0  0  0  0  0  0  0
   -1.4457    0.2035   -1.7787 C   0  0  0  0  0  0  0  0  0  0  0  0
   -1.3716   -1.2752   -1.9186 C   0  0  0  0  0  0  0  0  0  0  0  0
   -2.0748   -1.9308   -2.9786 C   0  0  0  0  0  0  0  0  0  0  0  0
   -2.8661   -1.2523   -3.9389 C   0  0  0  0  0  0  0  0  0  0  0  0
   -3.5403   -1.9317   -4.9558 C   0  0  0  0  0  0  0  0  0  0  0  0
   -3.4429   -3.3124   -5.0443 C   0  0  0  0  0  0  0  0  0  0  0  0
   -2.6720   -4.0094   -4.1164 C   0  0  0  0  0  0  0  0  0  0  0  0
   -1.9888   -3.3367   -3.0882 C   0  0  0  0  0  0  0  0  0  0  0  0
   -1.2196   -4.0604   -2.1685 C   0  0  0  0  0  0  0  0  0  0  0  0
   -0.5227   -3.4310   -1.1289 C   0  0  0  0  0  0  0  0  0  0  0  0
    0.2437   -4.1891   -0.2283 C   0  0  0  0  0  0  0  0  0  0  0  0
    0.9672   -3.5957    0.8195 C   0  0  0  0  0  0  0  0  0  0  0  0
    1.7307   -4.3867    1.6878 C   0  0  0  0  0  0  0  0  0  0  0  0
    2.4768   -3.8292    2.7334 C   0  0  0  0  0  0  0  0  0  0  0  0
    3.2343   -4.6606    3.5769 C   0  0  0  0  0  0  0  0  0  0  0  0
    3.9927   -4.1303    4.6184 C   0  0  0  0  0  0  0  0  0  0  0  0
    4.0041   -2.7596    4.8290 C   0  0  0  0  0  0  0  0  0  0  0  0
    3.2540   -1.9236    3.9989 C   0  0  0  0  0  0  0  0  0  0  0  0
    2.4687   -2.4307    2.9335 C   0  0  0  0  0  0  0  0  0  0  0  0
    1.6851   -1.6111    2.0601 C   0  0  0  0  0  0  0  0  0  0  0  0
    1.6563   -0.1364    2.2531 C   0  0  0  0  0  0  0  0  0  0  0  0
    2.5324    0.7422    1.5494 C   0  0  0  0  0  0  0  0  0  0  0  0
    3.5003    0.2977    0.6181 C   0  0  0  0  0  0  0  0  0  0  0  0
    4.3480    1.1834   -0.0688 C   0  0  0  0  0  0  0  0  0  0  0  0
    5.2974    0.7193   -0.9949 C   0  0  0  0  0  0  0  0  0  0  0  0
    6.1456    1.6044   -1.6799 C   0  0  0  0  0  0  0  0  0  0  0  0
    7.0945    1.1413   -2.6063 C   0  0  0  0  0  0  0  0  0  0  0  0
    7.9308    2.0338   -3.2783 C   0  0  0  0  0  0  0  0  0  0  0  0
    7.8298    3.3996   -3.0326 C   0  0  0  0  0  0  0  0  0  0  0  0
    6.8917    3.8752   -2.1150 C   0  0  0  0  0  0  0  0  0  0  0  0
    6.0422    2.9896   -1.4314 C   0  0  0  0  0  0  0  0  0  0  0  0
    5.0916    3.4513   -0.5061 C   0  0  0  0  0  0  0  0  0  0  0  0
    4.2421    2.5632    0.1763 C   0  0  0  0  0  0  0  0  0  0  0  0
    3.2871    3.0206    1.0975 C   0  0  0  0  0  0  0  0  0  0  0  0
    2.4351    2.1350    1.7796 C   0  0  0  0  0  0  0  0  0  0  0  0
    1.4853    2.6286    2.6867 C   0  0  0  0  0  0  0  0  0  0  0  0
    0.6297    1.7680    3.3682 C   0  0  0  0  0  0  0  0  0  0  0  0
    0.7146    0.3973    3.1531 C   0  0  0  0  0  0  0  0  0  0  0  0
    0.9297   -2.2022    0.9957 C   0  0  0  0  0  0  0  0  0  0  0  0
    0.1379   -1.4594    0.0839 C   0  0  0  0  0  0  0  0  0  0  0  0
   -0.5896   -2.0345   -0.9889 C   0  0  0  0  0  0  0  0  0  0  0  0
   -2.4831    0.8479   -1.0419 C   0  0  0  0  0  0  0  0  0  0  0  0
   -3.5347    0.1507   -0.4009 C   0  0  0  0  0  0  0  0  0  0  0  0
   -4.5501    0.8092    0.3141 C   0  0  0  0  0  0  0  0  0  0  0  0
   -5.5910    0.0973    0.9345 C   0  0  0  0  0  0  0  0  0  0  0  0
   -6.6071    0.7563    1.6459 C   0  0  0  0  0  0  0  0  0  0  0  0
   -7.6505    0.0458    2.2623 C   0  0  0  0  0  0  0  0  0  0  0  0
   -8.6522    0.7159    2.9662 C   0  0  0  0  0  0  0  0  0  0  0  0
   -9.4027    2.6275    3.6106 H   0  0  0  0  0  0  0  0  0  0  0  0
   -7.5900    3.9079    2.5405 H   0  0  0  0  0  0  0  0  0  0  0  0
   -5.5166    3.9589    1.1947 H   0  0  0  0  0  0  0  0  0  0  0  0
   -3.4625    4.0030   -0.1429 H   0  0  0  0  0  0  0  0  0  0  0  0
   -1.4278    4.0822   -1.4684 H   0  0  0  0  0  0  0  0  0  0  0  0
    0.3550    2.9483   -2.7273 H   0  0  0  0  0  0  0  0  0  0  0  0
    0.3622    0.4928   -2.9382 H   0  0  0  0  0  0  0  0  0  0  0  0
   -2.9688   -0.1690   -3.9024 H   0  0  0  0  0  0  0  0  0  0  0  0
   -4.1395   -1.3774   -5.6734 H   0  0  0  0  0  0  0  0  0  0  0  0
   -3.9650   -3.8478   -5.8326 H   0  0  0  0  0  0  0  0  0  0  0  0
   -2.6087   -5.0922   -4.2027 H   0  0  0  0  0  0  0  0  0  0  0  0
   -1.1602   -5.1437   -2.2660 H   0  0  0  0  0  0  0  0  0  0  0  0
    0.2840   -5.2708   -0.3506 H   0  0  0  0  0  0  0  0  0  0  0  0
    1.7489   -5.4661    1.5427 H   0  0  0  0  0  0  0  0  0  0  0  0
    3.2411   -5.7383    3.4261 H   0  0  0  0  0  0  0  0  0  0  0  0
    4.5737   -4.7871    5.2601 H   0  0  0  0  0  0  0  0  0  0  0  0
    4.5951   -2.3340    5.6357 H   0  0  0  0  0  0  0  0  0  0  0  0
    3.2936   -0.8533    4.1938 H   0  0  0  0  0  0  0  0  0  0  0  0
    3.5950   -0.7684    0.4161 H   0  0  0  0  0  0  0  0  0  0  0  0
    5.3757   -0.3498   -1.1855 H   0  0  0  0  0  0  0  0  0  0  0  0
    7.1885    0.0771   -2.8111 H   0  0  0  0  0  0  0  0  0  0  0  0
    8.6604    1.6612   -3.9923 H   0  0  0  0  0  0  0  0  0  0  0  0
    8.4807    4.0963   -3.5543 H   0  0  0  0  0  0  0  0  0  0  0  0
    6.8304    4.9464   -1.9357 H   0  0  0  0  0  0  0  0  0  0  0  0
    5.0111    4.5197   -0.3146 H   0  0  0  0  0  0  0  0  0  0  0  0
    3.2033    4.0897    1.2853 H   0  0  0  0  0  0  0  0  0  0  0  0
    1.4006    3.6981    2.8675 H   0  0  0  0  0  0  0  0  0  0  0  0
   -0.1052    2.1656    4.0628 H   0  0  0  0  0  0  0  0  0  0  0  0
    0.0377   -0.2672    3.6872 H   0  0  0  0  0  0  0  0  0  0  0  0
    0.0927   -0.3782    0.2105 H   0  0  0  0  0  0  0  0  0  0  0  0
   -3.5684   -0.9363   -0.4613 H   0  0  0  0  0  0  0  0  0  0  0  0
   -5.6115   -0.9886    0.8594 H   0  0  0  0  0  0  0  0  0  0  0  0
   -7.6907   -1.0394    2.1968 H   0  0  0  0  0  0  0  0  0  0  0  0
   -9.4533    0.1531    3.4380 H   0  0  0  0  0  0  0  0  0  0  0  0
  1  2  4  0
  2  3  4  0
  3  4  4  0
  4  5  4  0
  5  6  4  0
  6  7  4  0
  7  8  4  0
  8  9  4  0
  9 10  4  0
 10 11  4  0
 11 12  1  0
 12 13  4  0
 13 14  4  0
 14 15  4  0
 15 16  4  0
 16 17  4  0
 17 18  4  0
 18 19  4  0
 19 20  4  0
 20 21  4  0
 21 22  4  0
 22 23  4  0
 23 24  4  0
 24 25  4  0
 25 26  4  0
 26 27  4  0
 27 28  4  0
 28 29  4  0
 29 30  4  0
 30 31  1  0
 31 32  4  0
 32 33  4  0
 33 34  4  0
 34 35  4  0
 35 36  4  0
 36 37  4  0
 37 38  4  0
 38 39  4  0
 39 40  4  0
 40 41  4  0
 41 42  4  0
 42 43  4  0
 43 44  4  0
 44 45  4  0
 45 46  4  0
 46 47  4  0
 47 48  4  0
 30 49  4  0
 49 50  4  0
 50 51  4  0
 11 52  4  0
 52 53  4  0
 53 54  4  0
 54 55  4  0
 55 56  4  0
 56 57  4  0
 57 58  4  0
 58  1  4  0
 56  3  4  0
 54  5  4  0
 52  7  4  0
 51 12  4  0
 18 13  4  0
 51 20  4  0
 49 22  4  0
 29 24  4  0
 48 31  4  0
 45 32  4  0
 43 34  4  0
 41 36  4  0
  1 59  1  0
  2 60  1  0
  4 61  1  0
  6 62  1  0
  8 63  1  0
  9 64  1  0
 10 65  1  0
 14 66  1  0
 15 67  1  0
 16 68  1  0
 17 69  1  0
 19 70  1  0
 21 71  1  0
 23 72  1  0
 25 73  1  0
 26 74  1  0
 27 75  1  0
 28 76  1  0
 33 77  1  0
 35 78  1  0
 37 79  1  0
 38 80  1  0
 39 81  1  0
 40 82  1  0
 42 83  1  0
 44 84  1  0
 46 85  1  0
 47 86  1  0
 48 87  1  0
 50 88  1  0
 53 89  1  0
 55 90  1  0
 57 91  1  0
 58 92  1  0
M  END
