
     RDKit          3D

 92104  0  0  0  0  0  0  0  0999 V2000
   -1.5590    3.5480   -5.9086 C   0  0  0  0  0  0  0  0  0  0  0  0
   -1.2211    2.2386   -6.2366 C   0  0  0  0  0  0  0  0  0  0  0  0
   -1.3147    1.2326   -5.2739 C   0  0  0  0  0  0  0  0  0  0  0  0
   -1.7478    1.5243   -3.9702 C   0  0  0  0  0  0  0  0  0  0  0  0
   -1.8474    0.5231   -2.9906 C   0  0  0  0  0  0  0  0  0  0  0  0
   -2.2806    0.8152   -1.6865 C   0  0  0  0  0  0  0  0  0  0  0  0
   -2.3799   -0.1865   -0.7061 C   0  0  0  0  0  0  0  0  0  0  0  0
   -2.8077    0.0857    0.6145 C   0  0  0  0  0  0  0  0  0  0  0  0
   -3.1456    1.4223    0.9332 C   0  0  0  0  0  0  0  0  0  0  0  0
   -3.0499    2.4235   -0.0480 C   0  0  0  0  0  0  0  0  0  0  0  0
   -2.6205    2.1376   -1.3532 C   0  0  0  0  0  0  0  0  0  0  0  0
   -2.5213    3.1418   -2.3317 C   0  0  0  0  0  0  0  0  0  0  0  0
   -2.0899    2.8521   -3.6368 C   0  0  0  0  0  0  0  0  0  0  0  0
   -1.9907    3.8536   -4.6170 C   0  0  0  0  0  0  0  0  0  0  0  0
   -3.5723    1.7452    2.2302 C   0  0  0  0  0  0  0  0  0  0  0  0
   -3.6706    0.7687    3.2169 C   0  0  0  0  0  0  0  0  0  0  0  0
   -3.3402   -0.5481    2.9188 C   0  0  0  0  0  0  0  0  0  0  0  0
   -2.9070   -0.9110    1.6293 C   0  0  0  0  0  0  0  0  0  0  0  0
   -2.5452   -2.3329    1.3864 C   0  0  0  0  0  0  0  0  0  0  0  0
   -3.5496   -3.2671    0.9797 C   0  0  0  0  0  0  0  0  0  0  0  0
   -4.9075   -2.9222    0.7659 C   0  0  0  0  0  0  0  0  0  0  0  0
   -5.8569   -3.8661    0.3681 C   0  0  0  0  0  0  0  0  0  0  0  0
   -5.4767   -5.1853    0.1714 C   0  0  0  0  0  0  0  0  0  0  0  0
   -4.1485   -5.5562    0.3704 C   0  0  0  0  0  0  0  0  0  0  0  0
   -3.1834   -4.6151    0.7693 C   0  0  0  0  0  0  0  0  0  0  0  0
   -1.8535   -5.0122    0.9569 C   0  0  0  0  0  0  0  0  0  0  0  0
   -0.8584   -4.1066    1.3473 C   0  0  0  0  0  0  0  0  0  0  0  0
    0.4675   -4.5392    1.5169 C   0  0  0  0  0  0  0  0  0  0  0  0
    1.4963   -3.6610    1.8964 C   0  0  0  0  0  0  0  0  0  0  0  0
    2.8077   -4.1302    2.0472 C   0  0  0  0  0  0  0  0  0  0  0  0
    3.8601   -3.2814    2.4127 C   0  0  0  0  0  0  0  0  0  0  0  0
    5.1625   -3.7936    2.5468 C   0  0  0  0  0  0  0  0  0  0  0  0
    6.2272   -2.9685    2.9026 C   0  0  0  0  0  0  0  0  0  0  0  0
    6.0029   -1.6186    3.1286 C   0  0  0  0  0  0  0  0  0  0  0  0
    4.7134   -1.0982    3.0000 C   0  0  0  0  0  0  0  0  0  0  0  0
    3.6085   -1.9102    2.6419 C   0  0  0  0  0  0  0  0  0  0  0  0
    2.2728   -1.4185    2.4977 C   0  0  0  0  0  0  0  0  0  0  0  0
    1.9789    0.0195    2.7367 C   0  0  0  0  0  0  0  0  0  0  0  0
    1.6390    0.4194    4.0432 C   0  0  0  0  0  0  0  0  0  0  0  0
    1.3243    1.7437    4.3250 C   0  0  0  0  0  0  0  0  0  0  0  0
    1.3451    2.6902    3.3046 C   0  0  0  0  0  0  0  0  0  0  0  0
    1.6822    2.3306    1.9906 C   0  0  0  0  0  0  0  0  0  0  0  0
    1.6961    3.3013    0.9742 C   0  0  0  0  0  0  0  0  0  0  0  0
    2.0235    2.9769   -0.3517 C   0  0  0  0  0  0  0  0  0  0  0  0
    2.0347    3.9498   -1.3665 C   0  0  0  0  0  0  0  0  0  0  0  0
    2.3613    3.6212   -2.6928 C   0  0  0  0  0  0  0  0  0  0  0  0
    2.3725    4.5921   -3.7083 C   0  0  0  0  0  0  0  0  0  0  0  0
    2.6991    4.2490   -5.0214 C   0  0  0  0  0  0  0  0  0  0  0  0
    3.0182    2.9318   -5.3362 C   0  0  0  0  0  0  0  0  0  0  0  0
    3.0112    1.9559   -4.3381 C   0  0  0  0  0  0  0  0  0  0  0  0
    2.6848    2.2856   -3.0120 C   0  0  0  0  0  0  0  0  0  0  0  0
    2.6729    1.3156   -1.9959 C   0  0  0  0  0  0  0  0  0  0  0  0
    2.3465    1.6466   -0.6696 C   0  0  0  0  0  0  0  0  0  0  0  0
    2.3346    0.6765    0.3476 C   0  0  0  0  0  0  0  0  0  0  0  0
    2.0055    0.9868    1.6886 C   0  0  0  0  0  0  0  0  0  0  0  0
    1.2109   -2.3039    2.1219 C   0  0  0  0  0  0  0  0  0  0  0  0
   -0.1353   -1.8922    1.9525 C   0  0  0  0  0  0  0  0  0  0  0  0
   -1.1890   -2.7588    1.5665 C   0  0  0  0  0  0  0  0  0  0  0  0
   -1.4868    4.3328   -6.6569 H   0  0  0  0  0  0  0  0  0  0  0  0
   -0.8843    1.9979   -7.2413 H   0  0  0  0  0  0  0  0  0  0  0  0
   -1.0460    0.2150   -5.5487 H   0  0  0  0  0  0  0  0  0  0  0  0
   -1.5821   -0.5014   -3.2463 H   0  0  0  0  0  0  0  0  0  0  0  0
   -2.1104   -1.2054   -0.9805 H   0  0  0  0  0  0  0  0  0  0  0  0
   -3.3117    3.4483    0.2097 H   0  0  0  0  0  0  0  0  0  0  0  0
   -2.7825    4.1659   -2.0724 H   0  0  0  0  0  0  0  0  0  0  0  0
   -2.2502    4.8829   -4.3800 H   0  0  0  0  0  0  0  0  0  0  0  0
   -3.8305    2.7710    2.4846 H   0  0  0  0  0  0  0  0  0  0  0  0
   -3.9998    1.0349    4.2174 H   0  0  0  0  0  0  0  0  0  0  0  0
   -3.4129   -1.3042    3.6986 H   0  0  0  0  0  0  0  0  0  0  0  0
   -5.2441   -1.8961    0.9044 H   0  0  0  0  0  0  0  0  0  0  0  0
   -6.8892   -3.5640    0.2120 H   0  0  0  0  0  0  0  0  0  0  0  0
   -6.2095   -5.9252   -0.1385 H   0  0  0  0  0  0  0  0  0  0  0  0
   -3.8700   -6.5956    0.2085 H   0  0  0  0  0  0  0  0  0  0  0  0
   -1.5847   -6.0543    0.7896 H   0  0  0  0  0  0  0  0  0  0  0  0
    0.7063   -5.5878    1.3439 H   0  0  0  0  0  0  0  0  0  0  0  0
    3.0162   -5.1849    1.8714 H   0  0  0  0  0  0  0  0  0  0  0  0
    5.3597   -4.8493    2.3714 H   0  0  0  0  0  0  0  0  0  0  0  0
    7.2280   -3.3803    3.0002 H   0  0  0  0  0  0  0  0  0  0  0  0
    6.8263   -0.9647    3.4032 H   0  0  0  0  0  0  0  0  0  0  0  0
    4.5794   -0.0331    3.1813 H   0  0  0  0  0  0  0  0  0  0  0  0
    1.6121   -0.3160    4.8455 H   0  0  0  0  0  0  0  0  0  0  0  0
    1.0575    2.0366    5.3367 H   0  0  0  0  0  0  0  0  0  0  0  0
    1.0904    3.7207    3.5435 H   0  0  0  0  0  0  0  0  0  0  0  0
    1.4442    4.3317    1.2191 H   0  0  0  0  0  0  0  0  0  0  0  0
    1.7842    4.9799   -1.1203 H   0  0  0  0  0  0  0  0  0  0  0  0
    2.1257    5.6270   -3.4821 H   0  0  0  0  0  0  0  0  0  0  0  0
    2.7039    5.0106   -5.7967 H   0  0  0  0  0  0  0  0  0  0  0  0
    3.2726    2.6620   -6.3578 H   0  0  0  0  0  0  0  0  0  0  0  0
    3.2632    0.9315   -4.6033 H   0  0  0  0  0  0  0  0  0  0  0  0
    2.9208    0.2841   -2.2409 H   0  0  0  0  0  0  0  0  0  0  0  0
    2.5873   -0.3496    0.0840 H   0  0  0  0  0  0  0  0  0  0  0  0
   -0.3730   -0.8421    2.1193 H   0  0  0  0  0  0  0  0  0  0  0  0
  1  2  4  0
  2  3  4  0
  3  4  4  0
  4  5  4  0
  5  6  4  0
  6  7  4  0
  7  8  4  0
  8  9  4  0
  9 10  4  0
 10 11  4  0
 11 12  4  0
 12 13  4  0
 13 14  4  0
  9 15  4  0
 15 16  4  0
 16 17  4  0
 17 18  4  0
 18 19  1  0
 19 20  4  0
 20 21  4  0
 21 22  4  0
 22 23  4  0
 23 24  4  0
 24 25  4  0
 25 26  4  0
 26 27  4  0
 27 28  4  0
 28 29  4  0
 29 30  4  0
 30 31  4  0
 31 32  4  0
 32 33  4  0
 33 34  4  0
 34 35  4  0
 35 36  4  0
 36 37  4  0
 37 38  1  0
 38 39  4  0
 39 40  4  0
 40 41  4  0
 41 42  4  0
 42 43  4  0
 43 44  4  0
 44 45  4  0
 45 46  4  0
 46 47  4  0
 47 48  4  0
 48 49  4  0
 49 50  4  0
 50 51  4  0
 51 52  4  0
 52 53  4  0
 53 54  4  0
 54 55  4  0
 37 56  4  0
 56 57  4  0
 57 58  4  0
 14  1  4  0
 58 19  4  0
 13  4  4  0
 25 20  4  0
 58 27  4  0
 11  6  4  0
 56 29  4  0
 18  8  4  0
 36 31  4  0
 55 38  4  0
 55 42  4  0
 53 44  4  0
 51 46  4  0
  1 59  1  0
  2 60  1  0
  3 61  1  0
  5 62  1  0
  7 63  1  0
 10 64  1  0
 12 65  1  0
 14 66  1  0
 15 67  1  0
 16 68  1  0
 17 69  1  0
 21 70  1  0
 22 71  1  0
 23 72  1  0
 24 73  1  0
 26 74  1  0
 28 75  1  0
 30 76  1  0
 32 77  1  0
 33 78  1  0
 34 79  1  0
 35 80  1  0
 39 81  1  0
 40 82  1  0
 41 83  1  0
 43 84  1  0
 45 85  1  0
 47 86  1  0
 48 87  1  0
 49 88  1  0
 50 89  1  0
 52 90  1  0
 54 91  1  0
 57 92  1  0
M  END
