
     RDKit          3D

104118  0  0  0  0  0  0  0  0999 V2000
    0.7001   -7.1873   -3.5038 C   0  0  0  0  0  0  0  0  0  0  0  0
    0.4082   -7.4556   -2.1701 C   0  0  0  0  0  0  0  0  0  0  0  0
    0.6263   -6.4769   -1.1990 C   0  0  0  0  0  0  0  0  0  0  0  0
    1.1405   -5.2176   -1.5499 C   0  0  0  0  0  0  0  0  0  0  0  0
    1.3670   -4.2222   -0.5848 C   0  0  0  0  0  0  0  0  0  0  0  0
    1.8839   -2.9634   -0.9367 C   0  0  0  0  0  0  0  0  0  0  0  0
    2.1145   -1.9653    0.0270 C   0  0  0  0  0  0  0  0  0  0  0  0
    2.6372   -0.6885   -0.3006 C   0  0  0  0  0  0  0  0  0  0  0  0
    2.9183   -0.4385   -1.6592 C   0  0  0  0  0  0  0  0  0  0  0  0
    2.6915   -1.4344   -2.6254 C   0  0  0  0  0  0  0  0  0  0  0  0
    2.1783   -2.6938   -2.2825 C   0  0  0  0  0  0  0  0  0  0  0  0
    1.9514   -3.6866   -3.2518 C   0  0  0  0  0  0  0  0  0  0  0  0
    1.4369   -4.9459   -2.9023 C   0  0  0  0  0  0  0  0  0  0  0  0
    1.2111   -5.9406   -3.8683 C   0  0  0  0  0  0  0  0  0  0  0  0
    3.4175    0.8101   -2.0495 C   0  0  0  0  0  0  0  0  0  0  0  0
    3.6509    1.8363   -1.1270 C   0  0  0  0  0  0  0  0  0  0  0  0
    4.1311    3.0807   -1.5705 C   0  0  0  0  0  0  0  0  0  0  0  0
    4.3583    4.1239   -0.6766 C   0  0  0  0  0  0  0  0  0  0  0  0
    4.1161    3.9321    0.6751 C   0  0  0  0  0  0  0  0  0  0  0  0
    3.6457    2.6978    1.1282 C   0  0  0  0  0  0  0  0  0  0  0  0
    3.3935    1.6190    0.2443 C   0  0  0  0  0  0  0  0  0  0  0  0
    2.8822    0.3463    0.6612 C   0  0  0  0  0  0  0  0  0  0  0  0
    2.5561    0.1118    2.1032 C   0  0  0  0  0  0  0  0  0  0  0  0
    3.5113   -0.5103    2.9672 C   0  0  0  0  0  0  0  0  0  0  0  0
    4.7987   -0.9276    2.5480 C   0  0  0  0  0  0  0  0  0  0  0  0
    5.7005   -1.5346    3.4246 C   0  0  0  0  0  0  0  0  0  0  0  0
    5.3427   -1.7406    4.7487 C   0  0  0  0  0  0  0  0  0  0  0  0
    4.0845   -1.3392    5.1931 C   0  0  0  0  0  0  0  0  0  0  0  0
    3.1671   -0.7281    4.3205 C   0  0  0  0  0  0  0  0  0  0  0  0
    1.9088   -0.3306    4.7925 C   0  0  0  0  0  0  0  0  0  0  0  0
    0.9676    0.2905    3.9609 C   0  0  0  0  0  0  0  0  0  0  0  0
   -0.2807    0.6930    4.4679 C   0  0  0  0  0  0  0  0  0  0  0  0
   -1.2362    1.3444    3.6683 C   0  0  0  0  0  0  0  0  0  0  0  0
   -2.4640    1.7502    4.2086 C   0  0  0  0  0  0  0  0  0  0  0  0
   -3.4248    2.4236    3.4418 C   0  0  0  0  0  0  0  0  0  0  0  0
   -4.6421    2.8162    4.0252 C   0  0  0  0  0  0  0  0  0  0  0  0
   -5.6089    3.4948    3.2860 C   0  0  0  0  0  0  0  0  0  0  0  0
   -5.3696    3.7920    1.9524 C   0  0  0  0  0  0  0  0  0  0  0  0
   -4.1644    3.4079    1.3610 C   0  0  0  0  0  0  0  0  0  0  0  0
   -3.1634    2.7129    2.0834 C   0  0  0  0  0  0  0  0  0  0  0  0
   -1.9181    2.2977    1.5168 C   0  0  0  0  0  0  0  0  0  0  0  0
   -1.5949    2.6096    0.0896 C   0  0  0  0  0  0  0  0  0  0  0  0
   -0.8361    3.7855   -0.2219 C   0  0  0  0  0  0  0  0  0  0  0  0
   -0.3948    4.7211    0.7476 C   0  0  0  0  0  0  0  0  0  0  0  0
    0.3635    5.8423    0.4052 C   0  0  0  0  0  0  0  0  0  0  0  0
    0.7027    6.0649   -0.9203 C   0  0  0  0  0  0  0  0  0  0  0  0
    0.2800    5.1677   -1.8986 C   0  0  0  0  0  0  0  0  0  0  0  0
   -0.4847    4.0357   -1.5658 C   0  0  0  0  0  0  0  0  0  0  0  0
   -0.8948    3.1478   -2.5677 C   0  0  0  0  0  0  0  0  0  0  0  0
   -1.6454    1.9999   -2.2816 C   0  0  0  0  0  0  0  0  0  0  0  0
   -2.0365    1.1379   -3.3223 C   0  0  0  0  0  0  0  0  0  0  0  0
   -2.7771   -0.0281   -3.0775 C   0  0  0  0  0  0  0  0  0  0  0  0
   -3.1705   -0.8856   -4.1199 C   0  0  0  0  0  0  0  0  0  0  0  0
   -3.9095   -2.0533   -3.8679 C   0  0  0  0  0  0  0  0  0  0  0  0
   -4.3042   -2.9113   -4.9080 C   0  0  0  0  0  0  0  0  0  0  0  0
   -5.0380   -4.0680   -4.6399 C   0  0  0  0  0  0  0  0  0  0  0  0
   -5.3861   -4.3818   -3.3298 C   0  0  0  0  0  0  0  0  0  0  0  0
   -5.0009   -3.5392   -2.2858 C   0  0  0  0  0  0  0  0  0  0  0  0
   -4.2627   -2.3713   -2.5396 C   0  0  0  0  0  0  0  0  0  0  0  0
   -3.8680   -1.5122   -1.5008 C   0  0  0  0  0  0  0  0  0  0  0  0
   -3.1310   -0.3430   -1.7561 C   0  0  0  0  0  0  0  0  0  0  0  0
   -2.7396    0.5217   -0.7187 C   0  0  0  0  0  0  0  0  0  0  0  0
   -2.0002    1.7091   -0.9485 C   0  0  0  0  0  0  0  0  0  0  0  0
   -0.9554    1.6014    2.3167 C   0  0  0  0  0  0  0  0  0  0  0  0
    0.2949    1.1591    1.8219 C   0  0  0  0  0  0  0  0  0  0  0  0
    1.2794    0.5177    2.6106 C   0  0  0  0  0  0  0  0  0  0  0  0
    0.5307   -7.9476   -4.2618 H   0  0  0  0  0  0  0  0  0  0  0  0
    0.0105   -8.4257   -1.8837 H   0  0  0  0  0  0  0  0  0  0  0  0
    0.3919   -6.7039   -0.1613 H   0  0  0  0  0  0  0  0  0  0  0  0
    1.1374   -4.4295    0.4590 H   0  0  0  0  0  0  0  0  0  0  0  0
    1.8742   -2.1939    1.0642 H   0  0  0  0  0  0  0  0  0  0  0  0
    2.9145   -1.2235   -3.6699 H   0  0  0  0  0  0  0  0  0  0  0  0
    2.1791   -3.4751   -4.2946 H   0  0  0  0  0  0  0  0  0  0  0  0
    1.4329   -5.7499   -4.9159 H   0  0  0  0  0  0  0  0  0  0  0  0
    3.6220    0.9921   -3.1038 H   0  0  0  0  0  0  0  0  0  0  0  0
    4.3243    3.2503   -2.6276 H   0  0  0  0  0  0  0  0  0  0  0  0
    4.7184    5.0829   -1.0373 H   0  0  0  0  0  0  0  0  0  0  0  0
    4.2836    4.7405    1.3809 H   0  0  0  0  0  0  0  0  0  0  0  0
    3.4639    2.5898    2.1956 H   0  0  0  0  0  0  0  0  0  0  0  0
    5.1180   -0.7811    1.5175 H   0  0  0  0  0  0  0  0  0  0  0  0
    6.6796   -1.8427    3.0670 H   0  0  0  0  0  0  0  0  0  0  0  0
    6.0401   -2.2115    5.4361 H   0  0  0  0  0  0  0  0  0  0  0  0
    3.8248   -1.5074    6.2364 H   0  0  0  0  0  0  0  0  0  0  0  0
    1.6584   -0.5017    5.8385 H   0  0  0  0  0  0  0  0  0  0  0  0
   -0.5097    0.5061    5.5163 H   0  0  0  0  0  0  0  0  0  0  0  0
   -2.6754    1.5419    5.2567 H   0  0  0  0  0  0  0  0  0  0  0  0
   -4.8477    2.5959    5.0707 H   0  0  0  0  0  0  0  0  0  0  0  0
   -6.5445    3.7910    3.7525 H   0  0  0  0  0  0  0  0  0  0  0  0
   -6.1157    4.3223    1.3665 H   0  0  0  0  0  0  0  0  0  0  0  0
   -4.0137    3.6605    0.3128 H   0  0  0  0  0  0  0  0  0  0  0  0
   -0.6351    4.5797    1.7996 H   0  0  0  0  0  0  0  0  0  0  0  0
    0.6901    6.5317    1.1788 H   0  0  0  0  0  0  0  0  0  0  0  0
    1.2974    6.9313   -1.1939 H   0  0  0  0  0  0  0  0  0  0  0  0
    0.5606    5.3572   -2.9323 H   0  0  0  0  0  0  0  0  0  0  0  0
   -0.6156    3.3540   -3.6000 H   0  0  0  0  0  0  0  0  0  0  0  0
   -1.7566    1.3785   -4.3467 H   0  0  0  0  0  0  0  0  0  0  0  0
   -2.8965   -0.6404   -5.1443 H   0  0  0  0  0  0  0  0  0  0  0  0
   -4.0414   -2.6835   -5.9385 H   0  0  0  0  0  0  0  0  0  0  0  0
   -5.3366   -4.7228   -5.4544 H   0  0  0  0  0  0  0  0  0  0  0  0
   -5.9571   -5.2820   -3.1185 H   0  0  0  0  0  0  0  0  0  0  0  0
   -5.2820   -3.8009   -1.2681 H   0  0  0  0  0  0  0  0  0  0  0  0
   -4.1374   -1.7567   -0.4749 H   0  0  0  0  0  0  0  0  0  0  0  0
   -3.0217    0.2571    0.2995 H   0  0  0  0  0  0  0  0  0  0  0  0
    0.5189    1.3358    0.7707 H   0  0  0  0  0  0  0  0  0  0  0  0
  1  2  4  0
  2  3  4  0
  3  4  4  0
  4  5  4  0
  5  6  4  0
  6  7  4  0
  7  8  4  0
  8  9  4  0
  9 10  4  0
 10 11  4  0
 11 12  4  0
 12 13  4  0
 13 14  4  0
  9 15  4  0
 15 16  4  0
 16 17  4  0
 17 18  4  0
 18 19  4  0
 19 20  4  0
 20 21  4  0
 21 22  4  0
 22 23  1  0
 23 24  4  0
 24 25  4  0
 25 26  4  0
 26 27  4  0
 27 28  4  0
 28 29  4  0
 29 30  4  0
 30 31  4  0
 31 32  4  0
 32 33  4  0
 33 34  4  0
 34 35  4  0
 35 36  4  0
 36 37  4  0
 37 38  4  0
 38 39  4  0
 39 40  4  0
 40 41  4  0
 41 42  1  0
 42 43  4  0
 43 44  4  0
 44 45  4  0
 45 46  4  0
 46 47  4  0
 47 48  4  0
 48 49  4  0
 49 50  4  0
 50 51  4  0
 51 52  4  0
 52 53  4  0
 53 54  4  0
 54 55  4  0
 55 56  4  0
 56 57  4  0
 57 58  4  0
 58 59  4  0
 59 60  4  0
 60 61  4  0
 61 62  4  0
 62 63  4  0
 41 64  4  0
 64 65  4  0
 65 66  4  0
 14  1  4  0
 21 16  4  0
 66 23  4  0
 13  4  4  0
 29 24  4  0
 66 31  4  0
 11  6  4  0
 64 33  4  0
 22  8  4  0
 40 35  4  0
 63 42  4  0
 48 43  4  0
 63 50  4  0
 61 52  4  0
 59 54  4  0
  1 67  1  0
  2 68  1  0
  3 69  1  0
  5 70  1  0
  7 71  1  0
 10 72  1  0
 12 73  1  0
 14 74  1  0
 15 75  1  0
 17 76  1  0
 18 77  1  0
 19 78  1  0
 20 79  1  0
 25 80  1  0
 26 81  1  0
 27 82  1  0
 28 83  1  0
 30 84  1  0
 32 85  1  0
 34 86  1  0
 36 87  1  0
 37 88  1  0
 38 89  1  0
 39 90  1  0
 44 91  1  0
 45 92  1  0
 46 93  1  0
 47 94  1  0
 49 95  1  0
 51 96  1  0
 53 97  1  0
 55 98  1  0
 56 99  1  0
 57100  1  0
 58101  1  0
 60102  1  0
 62103  1  0
 65104  1  0
M  END
