
     RDKit          3D

104118  0  0  0  0  0  0  0  0999 V2000
   -1.8721    8.1852   -4.2148 C   0  0  0  0  0  0  0  0  0  0  0  0
   -2.2730    7.4473   -3.1001 C   0  0  0  0  0  0  0  0  0  0  0  0
   -2.1316    6.0499   -3.0744 C   0  0  0  0  0  0  0  0  0  0  0  0
   -2.5302    5.2928   -1.9603 C   0  0  0  0  0  0  0  0  0  0  0  0
   -2.3885    3.8950   -1.9354 C   0  0  0  0  0  0  0  0  0  0  0  0
   -2.7875    3.1374   -0.8212 C   0  0  0  0  0  0  0  0  0  0  0  0
   -2.6467    1.7395   -0.7956 C   0  0  0  0  0  0  0  0  0  0  0  0
   -3.0461    0.9816    0.3185 C   0  0  0  0  0  0  0  0  0  0  0  0
   -2.9087   -0.4160    0.3413 C   0  0  0  0  0  0  0  0  0  0  0  0
   -3.3107   -1.1734    1.4523 C   0  0  0  0  0  0  0  0  0  0  0  0
   -3.1670   -2.5627    1.4596 C   0  0  0  0  0  0  0  0  0  0  0  0
   -2.6141   -3.2272    0.3579 C   0  0  0  0  0  0  0  0  0  0  0  0
   -2.4313   -4.6952    0.3725 C   0  0  0  0  0  0  0  0  0  0  0  0
   -3.4554   -5.5490   -0.1464 C   0  0  0  0  0  0  0  0  0  0  0  0
   -4.6801   -5.0771   -0.6819 C   0  0  0  0  0  0  0  0  0  0  0  0
   -5.6541   -5.9457   -1.1796 C   0  0  0  0  0  0  0  0  0  0  0  0
   -5.4332   -7.3147   -1.1568 C   0  0  0  0  0  0  0  0  0  0  0  0
   -4.2397   -7.8112   -0.6371 C   0  0  0  0  0  0  0  0  0  0  0  0
   -3.2514   -6.9470   -0.1334 C   0  0  0  0  0  0  0  0  0  0  0  0
   -2.0589   -7.4707    0.3819 C   0  0  0  0  0  0  0  0  0  0  0  0
   -1.0479   -6.6463    0.8932 C   0  0  0  0  0  0  0  0  0  0  0  0
    0.1374   -7.2070    1.3975 C   0  0  0  0  0  0  0  0  0  0  0  0
    1.1761   -6.4161    1.9169 C   0  0  0  0  0  0  0  0  0  0  0  0
    2.3442   -7.0156    2.4052 C   0  0  0  0  0  0  0  0  0  0  0  0
    3.4009   -6.2600    2.9282 C   0  0  0  0  0  0  0  0  0  0  0  0
    4.5569   -6.9041    3.4034 C   0  0  0  0  0  0  0  0  0  0  0  0
    5.6233   -6.1761    3.9267 C   0  0  0  0  0  0  0  0  0  0  0  0
    5.5469   -4.7922    3.9805 C   0  0  0  0  0  0  0  0  0  0  0  0
    4.4035   -4.1408    3.5122 C   0  0  0  0  0  0  0  0  0  0  0  0
    3.3004   -4.8514    2.9757 C   0  0  0  0  0  0  0  0  0  0  0  0
    2.1105   -4.2256    2.4859 C   0  0  0  0  0  0  0  0  0  0  0  0
    1.9731   -2.7530    2.5392 C   0  0  0  0  0  0  0  0  0  0  0  0
    1.4685   -2.1249    3.6850 C   0  0  0  0  0  0  0  0  0  0  0  0
    1.3164   -0.7371    3.7268 C   0  0  0  0  0  0  0  0  0  0  0  0
    1.6634    0.0562    2.6226 C   0  0  0  0  0  0  0  0  0  0  0  0
    1.5122    1.4524    2.6475 C   0  0  0  0  0  0  0  0  0  0  0  0
    1.8585    2.2471    1.5415 C   0  0  0  0  0  0  0  0  0  0  0  0
    1.7084    3.6442    1.5660 C   0  0  0  0  0  0  0  0  0  0  0  0
    2.0556    4.4390    0.4604 C   0  0  0  0  0  0  0  0  0  0  0  0
    1.9064    5.8360    0.4861 C   0  0  0  0  0  0  0  0  0  0  0  0
    2.2542    6.6304   -0.6190 C   0  0  0  0  0  0  0  0  0  0  0  0
    2.1057    8.0271   -0.5940 C   0  0  0  0  0  0  0  0  0  0  0  0
    2.4561    8.8025   -1.7003 C   0  0  0  0  0  0  0  0  0  0  0  0
    2.9591    8.1920   -2.8450 C   0  0  0  0  0  0  0  0  0  0  0  0
    3.1124    6.8054   -2.8851 C   0  0  0  0  0  0  0  0  0  0  0  0
    2.7642    6.0115   -1.7799 C   0  0  0  0  0  0  0  0  0  0  0  0
    2.9125    4.6149   -1.8047 C   0  0  0  0  0  0  0  0  0  0  0  0
    2.5645    3.8213   -0.6985 C   0  0  0  0  0  0  0  0  0  0  0  0
    2.7134    2.4245   -0.7233 C   0  0  0  0  0  0  0  0  0  0  0  0
    2.3670    1.6298    0.3824 C   0  0  0  0  0  0  0  0  0  0  0  0
    2.5171    0.2329    0.3565 C   0  0  0  0  0  0  0  0  0  0  0  0
    2.1733   -0.5618    1.4623 C   0  0  0  0  0  0  0  0  0  0  0  0
    2.3239   -1.9589    1.4354 C   0  0  0  0  0  0  0  0  0  0  0  0
    1.0440   -5.0174    1.9479 C   0  0  0  0  0  0  0  0  0  0  0  0
   -0.1614   -4.4743    1.4339 C   0  0  0  0  0  0  0  0  0  0  0  0
   -1.2206   -5.2518    0.8988 C   0  0  0  0  0  0  0  0  0  0  0  0
   -2.2132   -2.4696   -0.7546 C   0  0  0  0  0  0  0  0  0  0  0  0
   -2.3544   -1.0720   -0.7768 C   0  0  0  0  0  0  0  0  0  0  0  0
   -1.9530   -0.3141   -1.8889 C   0  0  0  0  0  0  0  0  0  0  0  0
   -2.0934    1.0836   -1.9122 C   0  0  0  0  0  0  0  0  0  0  0  0
   -1.6936    1.8409   -3.0260 C   0  0  0  0  0  0  0  0  0  0  0  0
   -1.8346    3.2385   -3.0516 C   0  0  0  0  0  0  0  0  0  0  0  0
   -1.4354    3.9947   -4.1666 C   0  0  0  0  0  0  0  0  0  0  0  0
   -1.5768    5.3919   -4.1926 C   0  0  0  0  0  0  0  0  0  0  0  0
   -1.1782    6.1485   -5.3071 C   0  0  0  0  0  0  0  0  0  0  0  0
   -1.3252    7.5363   -5.3174 C   0  0  0  0  0  0  0  0  0  0  0  0
   -1.9872    9.2660   -4.2209 H   0  0  0  0  0  0  0  0  0  0  0  0
   -2.6982    7.9728   -2.2479 H   0  0  0  0  0  0  0  0  0  0  0  0
   -2.9581    5.8006   -1.0980 H   0  0  0  0  0  0  0  0  0  0  0  0
   -3.2161    3.6452    0.0411 H   0  0  0  0  0  0  0  0  0  0  0  0
   -3.4711    1.4882    1.1830 H   0  0  0  0  0  0  0  0  0  0  0  0
   -3.7369   -0.6860    2.3260 H   0  0  0  0  0  0  0  0  0  0  0  0
   -3.4805   -3.1276    2.3352 H   0  0  0  0  0  0  0  0  0  0  0  0
   -4.8913   -4.0097   -0.7174 H   0  0  0  0  0  0  0  0  0  0  0  0
   -6.5812   -5.5470   -1.5829 H   0  0  0  0  0  0  0  0  0  0  0  0
   -6.1862   -7.9969   -1.5421 H   0  0  0  0  0  0  0  0  0  0  0  0
   -4.0852   -8.8884   -0.6286 H   0  0  0  0  0  0  0  0  0  0  0  0
   -1.9133   -8.5503    0.3842 H   0  0  0  0  0  0  0  0  0  0  0  0
    0.2557   -8.2900    1.3839 H   0  0  0  0  0  0  0  0  0  0  0  0
    2.4348   -8.1008    2.3754 H   0  0  0  0  0  0  0  0  0  0  0  0
    4.6354   -7.9888    3.3677 H   0  0  0  0  0  0  0  0  0  0  0  0
    6.5096   -6.6897    4.2889 H   0  0  0  0  0  0  0  0  0  0  0  0
    6.3729   -4.2130    4.3845 H   0  0  0  0  0  0  0  0  0  0  0  0
    4.3843   -3.0539    3.5698 H   0  0  0  0  0  0  0  0  0  0  0  0
    1.1842   -2.7196    4.5508 H   0  0  0  0  0  0  0  0  0  0  0  0
    0.9190   -0.2804    4.6304 H   0  0  0  0  0  0  0  0  0  0  0  0
    1.1169    1.9287    3.5429 H   0  0  0  0  0  0  0  0  0  0  0  0
    1.3150    4.1218    2.4616 H   0  0  0  0  0  0  0  0  0  0  0  0
    1.5130    6.3140    1.3814 H   0  0  0  0  0  0  0  0  0  0  0  0
    1.7143    8.5224    0.2917 H   0  0  0  0  0  0  0  0  0  0  0  0
    2.3359    9.8821   -1.6669 H   0  0  0  0  0  0  0  0  0  0  0  0
    3.2326    8.7939   -3.7077 H   0  0  0  0  0  0  0  0  0  0  0  0
    3.5072    6.3469   -3.7891 H   0  0  0  0  0  0  0  0  0  0  0  0
    3.3059    4.1377   -2.7004 H   0  0  0  0  0  0  0  0  0  0  0  0
    3.1065    1.9472   -1.6194 H   0  0  0  0  0  0  0  0  0  0  0  0
    2.9072   -0.2448   -0.5404 H   0  0  0  0  0  0  0  0  0  0  0  0
    2.7093   -2.4443    0.5401 H   0  0  0  0  0  0  0  0  0  0  0  0
   -0.2806   -3.3916    1.4495 H   0  0  0  0  0  0  0  0  0  0  0  0
   -1.7785   -2.9828   -1.6112 H   0  0  0  0  0  0  0  0  0  0  0  0
   -1.5239   -0.8214   -2.7513 H   0  0  0  0  0  0  0  0  0  0  0  0
   -1.2655    1.3328   -3.8884 H   0  0  0  0  0  0  0  0  0  0  0  0
   -1.0072    3.4876   -5.0294 H   0  0  0  0  0  0  0  0  0  0  0  0
   -0.7485    5.6596   -6.1785 H   0  0  0  0  0  0  0  0  0  0  0  0
   -1.0124    8.1091   -6.1865 H   0  0  0  0  0  0  0  0  0  0  0  0
  1  2  4  0
  2  3  4  0
  3  4  4  0
  4  5  4  0
  5  6  4  0
  6  7  4  0
  7  8  4  0
  8  9  4  0
  9 10  4  0
 10 11  4  0
 11 12  4  0
 12 13  1  0
 13 14  4  0
 14 15  4  0
 15 16  4  0
 16 17  4  0
 17 18  4  0
 18 19  4  0
 19 20  4  0
 20 21  4  0
 21 22  4  0
 22 23  4  0
 23 24  4  0
 24 25  4  0
 25 26  4  0
 26 27  4  0
 27 28  4  0
 28 29  4  0
 29 30  4  0
 30 31  4  0
 31 32  1  0
 32 33  4  0
 33 34  4  0
 34 35  4  0
 35 36  4  0
 36 37  4  0
 37 38  4  0
 38 39  4  0
 39 40  4  0
 40 41  4  0
 41 42  4  0
 42 43  4  0
 43 44  4  0
 44 45  4  0
 45 46  4  0
 46 47  4  0
 47 48  4  0
 48 49  4  0
 49 50  4  0
 50 51  4  0
 51 52  4  0
 52 53  4  0
 31 54  4  0
 54 55  4  0
 55 56  4  0
 12 57  4  0
 57 58  4  0
 58 59  4  0
 59 60  4  0
 60 61  4  0
 61 62  4  0
 62 63  4  0
 63 64  4  0
 64 65  4  0
 65 66  4  0
 66  1  4  0
 64  3  4  0
 62  5  4  0
 60  7  4  0
 58  9  4  0
 56 13  4  0
 19 14  4  0
 56 21  4  0
 54 23  4  0
 30 25  4  0
 53 32  4  0
 52 35  4  0
 50 37  4  0
 48 39  4  0
 46 41  4  0
  1 67  1  0
  2 68  1  0
  4 69  1  0
  6 70  1  0
  8 71  1  0
 10 72  1  0
 11 73  1  0
 15 74  1  0
 16 75  1  0
 17 76  1  0
 18 77  1  0
 20 78  1  0
 22 79  1  0
 24 80  1  0
 26 81  1  0
 27 82  1  0
 28 83  1  0
 29 84  1  0
 33 85  1  0
 34 86  1  0
 36 87  1  0
 38 88  1  0
 40 89  1  0
 42 90  1  0
 43 91  1  0
 44 92  1  0
 45 93  1  0
 47 94  1  0
 49 95  1  0
 51 96  1  0
 53 97  1  0
 55 98  1  0
 57 99  1  0
 59100  1  0
 61101  1  0
 63102  1  0
 65103  1  0
 66104  1  0
M  END
