
     RDKit          3D

104118  0  0  0  0  0  0  0  0999 V2000
  -14.3141   -0.8042   -1.1251 C   0  0  0  0  0  0  0  0  0  0  0  0
  -13.5691   -1.0830   -2.2662 C   0  0  0  0  0  0  0  0  0  0  0  0
  -12.1760   -1.0105   -2.2227 C   0  0  0  0  0  0  0  0  0  0  0  0
  -11.5095   -0.6584   -1.0363 C   0  0  0  0  0  0  0  0  0  0  0  0
  -10.1053   -0.5809   -0.9725 C   0  0  0  0  0  0  0  0  0  0  0  0
   -9.4036   -0.2287    0.2096 C   0  0  0  0  0  0  0  0  0  0  0  0
  -10.1909    0.0494    1.3536 C   0  0  0  0  0  0  0  0  0  0  0  0
  -11.5935   -0.0265    1.2955 C   0  0  0  0  0  0  0  0  0  0  0  0
  -12.2638   -0.3769    0.1160 C   0  0  0  0  0  0  0  0  0  0  0  0
  -13.6659   -0.4530    0.0595 C   0  0  0  0  0  0  0  0  0  0  0  0
   -9.5733    0.4029    2.5556 C   0  0  0  0  0  0  0  0  0  0  0  0
   -8.1874    0.4867    2.6485 C   0  0  0  0  0  0  0  0  0  0  0  0
   -7.3777    0.2187    1.5422 C   0  0  0  0  0  0  0  0  0  0  0  0
   -5.9809    0.3100    1.6717 C   0  0  0  0  0  0  0  0  0  0  0  0
   -5.1226    0.0480    0.5957 C   0  0  0  0  0  0  0  0  0  0  0  0
   -3.7259    0.1350    0.7289 C   0  0  0  0  0  0  0  0  0  0  0  0
   -2.8722   -0.1382   -0.3522 C   0  0  0  0  0  0  0  0  0  0  0  0
   -1.4008   -0.0544   -0.1941 C   0  0  0  0  0  0  0  0  0  0  0  0
   -0.6757   -1.2003    0.2577 C   0  0  0  0  0  0  0  0  0  0  0  0
   -1.3143   -2.4316    0.5693 C   0  0  0  0  0  0  0  0  0  0  0  0
   -0.6216   -3.5658    1.0196 C   0  0  0  0  0  0  0  0  0  0  0  0
   -1.2842   -4.7679    1.3236 C   0  0  0  0  0  0  0  0  0  0  0  0
   -0.5723   -5.8816    1.7709 C   0  0  0  0  0  0  0  0  0  0  0  0
    0.8089   -5.8063    1.9188 C   0  0  0  0  0  0  0  0  0  0  0  0
    1.4762   -4.6176    1.6198 C   0  0  0  0  0  0  0  0  0  0  0  0
    0.7688   -3.4895    1.1689 C   0  0  0  0  0  0  0  0  0  0  0  0
    1.4147   -2.2813    0.8618 C   0  0  0  0  0  0  0  0  0  0  0  0
    0.7271   -1.1233    0.4060 C   0  0  0  0  0  0  0  0  0  0  0  0
    1.4014    0.0989    0.0976 C   0  0  0  0  0  0  0  0  0  0  0  0
    2.8737    0.1809    0.2508 C   0  0  0  0  0  0  0  0  0  0  0  0
    3.4445    0.6062    1.4570 C   0  0  0  0  0  0  0  0  0  0  0  0
    4.8317    0.6910    1.5948 C   0  0  0  0  0  0  0  0  0  0  0  0
    5.6820    0.3519    0.5304 C   0  0  0  0  0  0  0  0  0  0  0  0
    7.0818    0.4366    0.6501 C   0  0  0  0  0  0  0  0  0  0  0  0
    7.9694    0.1036   -0.4058 C   0  0  0  0  0  0  0  0  0  0  0  0
    7.3770   -0.3333   -1.6156 C   0  0  0  0  0  0  0  0  0  0  0  0
    5.9793   -0.4201   -1.7399 C   0  0  0  0  0  0  0  0  0  0  0  0
    5.1232   -0.0809   -0.6838 C   0  0  0  0  0  0  0  0  0  0  0  0
    3.7253   -0.1618   -0.8123 C   0  0  0  0  0  0  0  0  0  0  0  0
    8.1844   -0.6819   -2.7010 C   0  0  0  0  0  0  0  0  0  0  0  0
    9.5710   -0.6049   -2.6130 C   0  0  0  0  0  0  0  0  0  0  0  0
   10.1916   -0.1760   -1.4373 C   0  0  0  0  0  0  0  0  0  0  0  0
   11.5947   -0.1075   -1.3841 C   0  0  0  0  0  0  0  0  0  0  0  0
   12.2686    0.3168   -0.2311 C   0  0  0  0  0  0  0  0  0  0  0  0
   13.6714    0.3854   -0.1797 C   0  0  0  0  0  0  0  0  0  0  0  0
   14.3227    0.8114    0.9785 C   0  0  0  0  0  0  0  0  0  0  0  0
   13.5803    1.1735    2.0976 C   0  0  0  0  0  0  0  0  0  0  0  0
   12.1865    1.1096    2.0587 C   0  0  0  0  0  0  0  0  0  0  0  0
   11.5169    0.6823    0.8991 C   0  0  0  0  0  0  0  0  0  0  0  0
   10.1120    0.6115    0.8405 C   0  0  0  0  0  0  0  0  0  0  0  0
    9.4069    0.1852   -0.3150 C   0  0  0  0  0  0  0  0  0  0  0  0
    0.6758    1.2451   -0.3547 C   0  0  0  0  0  0  0  0  0  0  0  0
    1.3128    2.4759   -0.6723 C   0  0  0  0  0  0  0  0  0  0  0  0
    0.6161    3.6127   -1.1118 C   0  0  0  0  0  0  0  0  0  0  0  0
    1.2752    4.8161   -1.4176 C   0  0  0  0  0  0  0  0  0  0  0  0
    0.5584    5.9325   -1.8507 C   0  0  0  0  0  0  0  0  0  0  0  0
   -0.8244    5.8593   -1.9830 C   0  0  0  0  0  0  0  0  0  0  0  0
   -1.4887    4.6696   -1.6829 C   0  0  0  0  0  0  0  0  0  0  0  0
   -0.7760    3.5389   -1.2464 C   0  0  0  0  0  0  0  0  0  0  0  0
   -1.4190    2.3297   -0.9398 C   0  0  0  0  0  0  0  0  0  0  0  0
   -0.7277    1.1692   -0.4967 C   0  0  0  0  0  0  0  0  0  0  0  0
   -3.4392   -0.4971   -1.5816 C   0  0  0  0  0  0  0  0  0  0  0  0
   -4.8255   -0.5812   -1.7257 C   0  0  0  0  0  0  0  0  0  0  0  0
   -5.6781   -0.3129   -0.6432 C   0  0  0  0  0  0  0  0  0  0  0  0
   -7.0770   -0.3996   -0.7688 C   0  0  0  0  0  0  0  0  0  0  0  0
   -7.9669   -0.1424    0.3061 C   0  0  0  0  0  0  0  0  0  0  0  0
  -15.3989   -0.8595   -1.1552 H   0  0  0  0  0  0  0  0  0  0  0  0
  -14.0699   -1.3567   -3.1910 H   0  0  0  0  0  0  0  0  0  0  0  0
  -11.6115   -1.2316   -3.1258 H   0  0  0  0  0  0  0  0  0  0  0  0
   -9.5537   -0.8057   -1.8811 H   0  0  0  0  0  0  0  0  0  0  0  0
  -12.1784    0.1912    2.1880 H   0  0  0  0  0  0  0  0  0  0  0  0
  -14.2639   -0.2382    0.9422 H   0  0  0  0  0  0  0  0  0  0  0  0
  -10.1676    0.6188    3.4412 H   0  0  0  0  0  0  0  0  0  0  0  0
   -7.7470    0.7653    3.6038 H   0  0  0  0  0  0  0  0  0  0  0  0
   -5.5508    0.5879    2.6329 H   0  0  0  0  0  0  0  0  0  0  0  0
   -3.2897    0.4142    1.6871 H   0  0  0  0  0  0  0  0  0  0  0  0
   -2.3948   -2.5191    0.4608 H   0  0  0  0  0  0  0  0  0  0  0  0
   -2.3641   -4.8423    1.2139 H   0  0  0  0  0  0  0  0  0  0  0  0
   -1.0963   -6.8048    2.0035 H   0  0  0  0  0  0  0  0  0  0  0  0
    1.3681   -6.6706    2.2671 H   0  0  0  0  0  0  0  0  0  0  0  0
    2.5564   -4.5755    1.7415 H   0  0  0  0  0  0  0  0  0  0  0  0
    2.4966   -2.2490    0.9863 H   0  0  0  0  0  0  0  0  0  0  0  0
    2.8072    0.8770    2.2965 H   0  0  0  0  0  0  0  0  0  0  0  0
    5.2439    1.0273    2.5438 H   0  0  0  0  0  0  0  0  0  0  0  0
    7.4795    0.7755    1.6027 H   0  0  0  0  0  0  0  0  0  0  0  0
    5.5472   -0.7576   -2.6811 H   0  0  0  0  0  0  0  0  0  0  0  0
    3.2867   -0.4938   -1.7524 H   0  0  0  0  0  0  0  0  0  0  0  0
    7.7405   -1.0201   -3.6352 H   0  0  0  0  0  0  0  0  0  0  0  0
   10.1637   -0.8854   -3.4816 H   0  0  0  0  0  0  0  0  0  0  0  0
   12.1771   -0.3897   -2.2599 H   0  0  0  0  0  0  0  0  0  0  0  0
   14.2678    0.1062   -1.0454 H   0  0  0  0  0  0  0  0  0  0  0  0
   15.4080    0.8599    1.0053 H   0  0  0  0  0  0  0  0  0  0  0  0
   14.0839    1.5057    3.0016 H   0  0  0  0  0  0  0  0  0  0  0  0
   11.6243    1.3972    2.9443 H   0  0  0  0  0  0  0  0  0  0  0  0
    9.5627    0.9023    1.7316 H   0  0  0  0  0  0  0  0  0  0  0  0
    2.3948    2.5608   -0.5764 H   0  0  0  0  0  0  0  0  0  0  0  0
    2.3561    4.8901   -1.3196 H   0  0  0  0  0  0  0  0  0  0  0  0
    1.0801    6.8565   -2.0843 H   0  0  0  0  0  0  0  0  0  0  0  0
   -1.3869    6.7260   -2.3199 H   0  0  0  0  0  0  0  0  0  0  0  0
   -2.5704    4.6287   -1.7920 H   0  0  0  0  0  0  0  0  0  0  0  0
   -2.5021    2.2994   -1.0525 H   0  0  0  0  0  0  0  0  0  0  0  0
   -2.7997   -0.7140   -2.4350 H   0  0  0  0  0  0  0  0  0  0  0  0
   -5.2346   -0.8620   -2.6938 H   0  0  0  0  0  0  0  0  0  0  0  0
   -7.4721   -0.6798   -1.7413 H   0  0  0  0  0  0  0  0  0  0  0  0
  1  2  4  0
  2  3  4  0
  3  4  4  0
  4  5  4  0
  5  6  4  0
  6  7  4  0
  7  8  4  0
  8  9  4  0
  9 10  4  0
  7 11  4  0
 11 12  4  0
 12 13  4  0
 13 14  4  0
 14 15  4  0
 15 16  4  0
 16 17  4  0
 17 18  1  0
 18 19  4  0
 19 20  4  0
 20 21  4  0
 21 22  4  0
 22 23  4  0
 23 24  4  0
 24 25  4  0
 25 26  4  0
 26 27  4  0
 27 28  4  0
 28 29  4  0
 29 30  1  0
 30 31  4  0
 31 32  4  0
 32 33  4  0
 33 34  4  0
 34 35  4  0
 35 36  4  0
 36 37  4  0
 37 38  4  0
 38 39  4  0
 36 40  4  0
 40 41  4  0
 41 42  4  0
 42 43  4  0
 43 44  4  0
 44 45  4  0
 45 46  4  0
 46 47  4  0
 47 48  4  0
 48 49  4  0
 49 50  4  0
 50 51  4  0
 29 52  4  0
 52 53  4  0
 53 54  4  0
 54 55  4  0
 55 56  4  0
 56 57  4  0
 57 58  4  0
 58 59  4  0
 59 60  4  0
 60 61  4  0
 17 62  4  0
 62 63  4  0
 63 64  4  0
 64 65  4  0
 65 66  4  0
 10  1  4  0
 66 13  4  0
  9  4  4  0
 64 15  4  0
 66  6  4  0
 61 18  4  0
 28 19  4  0
 39 30  4  0
 51 42  4  0
 61 52  4  0
 26 21  4  0
 38 33  4  0
 49 44  4  0
 59 54  4  0
 51 35  4  0
  1 67  1  0
  2 68  1  0
  3 69  1  0
  5 70  1  0
  8 71  1  0
 10 72  1  0
 11 73  1  0
 12 74  1  0
 14 75  1  0
 16 76  1  0
 20 77  1  0
 22 78  1  0
 23 79  1  0
 24 80  1  0
 25 81  1  0
 27 82  1  0
 31 83  1  0
 32 84  1  0
 34 85  1  0
 37 86  1  0
 39 87  1  0
 40 88  1  0
 41 89  1  0
 43 90  1  0
 45 91  1  0
 46 92  1  0
 47 93  1  0
 48 94  1  0
 50 95  1  0
 53 96  1  0
 55 97  1  0
 56 98  1  0
 57 99  1  0
 58100  1  0
 60101  1  0
 62102  1  0
 63103  1  0
 65104  1  0
M  END
