
     RDKit          3D

104118  0  0  0  0  0  0  0  0999 V2000
   12.5263   -2.7504    1.6252 C   0  0  0  0  0  0  0  0  0  0  0  0
   11.3401   -3.3790    1.9895 C   0  0  0  0  0  0  0  0  0  0  0  0
   10.1148   -2.8108    1.6372 C   0  0  0  0  0  0  0  0  0  0  0  0
   10.0598   -1.6058    0.9155 C   0  0  0  0  0  0  0  0  0  0  0  0
    8.8336   -1.0174    0.5507 C   0  0  0  0  0  0  0  0  0  0  0  0
    8.7452    0.1985   -0.1761 C   0  0  0  0  0  0  0  0  0  0  0  0
    9.9709    0.8137   -0.5299 C   0  0  0  0  0  0  0  0  0  0  0  0
   11.1980    0.2299   -0.1694 C   0  0  0  0  0  0  0  0  0  0  0  0
   11.2594   -0.9716    0.5487 C   0  0  0  0  0  0  0  0  0  0  0  0
   12.4870   -1.5535    0.9090 C   0  0  0  0  0  0  0  0  0  0  0  0
    9.9675    2.0141   -1.2442 C   0  0  0  0  0  0  0  0  0  0  0  0
    8.7716    2.6200   -1.6168 C   0  0  0  0  0  0  0  0  0  0  0  0
    7.5429    2.0434   -1.2865 C   0  0  0  0  0  0  0  0  0  0  0  0
    6.3539    2.6834   -1.6777 C   0  0  0  0  0  0  0  0  0  0  0  0
    5.0950    2.1504   -1.3716 C   0  0  0  0  0  0  0  0  0  0  0  0
    3.9095    2.7943   -1.7602 C   0  0  0  0  0  0  0  0  0  0  0  0
    2.6643    2.2487   -1.4421 C   0  0  0  0  0  0  0  0  0  0  0  0
    2.5760    1.0466   -0.7289 C   0  0  0  0  0  0  0  0  0  0  0  0
    1.2553    0.4712   -0.3784 C   0  0  0  0  0  0  0  0  0  0  0  0
    0.6429    0.8236    0.8641 C   0  0  0  0  0  0  0  0  0  0  0  0
    1.2568    1.7085    1.7921 C   0  0  0  0  0  0  0  0  0  0  0  0
    0.6740    2.0646    3.0178 C   0  0  0  0  0  0  0  0  0  0  0  0
    1.3088    2.9419    3.9143 C   0  0  0  0  0  0  0  0  0  0  0  0
    0.7078    3.2806    5.1271 C   0  0  0  0  0  0  0  0  0  0  0  0
   -0.5335    2.7465    5.4574 C   0  0  0  0  0  0  0  0  0  0  0  0
   -1.1720    1.8743    4.5746 C   0  0  0  0  0  0  0  0  0  0  0  0
   -0.5752    1.5262    3.3502 C   0  0  0  0  0  0  0  0  0  0  0  0
   -1.1948    0.6512    2.4440 C   0  0  0  0  0  0  0  0  0  0  0  0
   -0.6181    0.2813    1.1981 C   0  0  0  0  0  0  0  0  0  0  0  0
   -1.2656   -0.6096    0.2864 C   0  0  0  0  0  0  0  0  0  0  0  0
   -2.5906   -1.1759    0.6364 C   0  0  0  0  0  0  0  0  0  0  0  0
   -2.6910   -2.4063    1.2979 C   0  0  0  0  0  0  0  0  0  0  0  0
   -3.9409   -2.9323    1.6316 C   0  0  0  0  0  0  0  0  0  0  0  0
   -5.1195   -2.2374    1.3157 C   0  0  0  0  0  0  0  0  0  0  0  0
   -6.3831   -2.7438    1.6481 C   0  0  0  0  0  0  0  0  0  0  0  0
   -7.5643   -2.0469    1.3381 C   0  0  0  0  0  0  0  0  0  0  0  0
   -8.7984   -2.5954    1.6964 C   0  0  0  0  0  0  0  0  0  0  0  0
   -9.9864   -1.9309    1.4070 C   0  0  0  0  0  0  0  0  0  0  0  0
   -9.9762   -0.6980    0.7503 C   0  0  0  0  0  0  0  0  0  0  0  0
  -11.1951   -0.0537    0.4748 C   0  0  0  0  0  0  0  0  0  0  0  0
  -11.2425    1.1843   -0.1797 C   0  0  0  0  0  0  0  0  0  0  0  0
  -12.4616    1.8278   -0.4534 C   0  0  0  0  0  0  0  0  0  0  0  0
  -12.4867    3.0610   -1.1059 C   0  0  0  0  0  0  0  0  0  0  0  0
  -11.2948    3.6649   -1.4926 C   0  0  0  0  0  0  0  0  0  0  0  0
  -10.0777    3.0354   -1.2263 C   0  0  0  0  0  0  0  0  0  0  0  0
  -10.0369    1.7932   -0.5696 C   0  0  0  0  0  0  0  0  0  0  0  0
   -8.8191    1.1433   -0.2916 C   0  0  0  0  0  0  0  0  0  0  0  0
   -8.7449   -0.1100    0.3703 C   0  0  0  0  0  0  0  0  0  0  0  0
   -7.5131   -0.7990    0.6705 C   0  0  0  0  0  0  0  0  0  0  0  0
   -6.2222   -0.3094    0.3416 C   0  0  0  0  0  0  0  0  0  0  0  0
   -5.0364   -1.0020    0.6520 C   0  0  0  0  0  0  0  0  0  0  0  0
   -3.7718   -0.4858    0.3167 C   0  0  0  0  0  0  0  0  0  0  0  0
   -0.6531   -0.9621   -0.9563 C   0  0  0  0  0  0  0  0  0  0  0  0
   -1.2684   -1.8423   -1.8877 C   0  0  0  0  0  0  0  0  0  0  0  0
   -0.6785   -2.2065   -3.1085 C   0  0  0  0  0  0  0  0  0  0  0  0
   -1.3108   -3.0833   -4.0073 C   0  0  0  0  0  0  0  0  0  0  0  0
   -0.7015   -3.4318   -5.2133 C   0  0  0  0  0  0  0  0  0  0  0  0
    0.5464   -2.9082   -5.5349 C   0  0  0  0  0  0  0  0  0  0  0  0
    1.1826   -2.0361   -4.6505 C   0  0  0  0  0  0  0  0  0  0  0  0
    0.5772   -1.6782   -3.4331 C   0  0  0  0  0  0  0  0  0  0  0  0
    1.1948   -0.8024   -2.5266 C   0  0  0  0  0  0  0  0  0  0  0  0
    0.6110   -0.4241   -1.2870 C   0  0  0  0  0  0  0  0  0  0  0  0
    3.7642    0.4029   -0.3442 C   0  0  0  0  0  0  0  0  0  0  0  0
    5.0245    0.9431   -0.6564 C   0  0  0  0  0  0  0  0  0  0  0  0
    6.2183    0.3059   -0.2674 C   0  0  0  0  0  0  0  0  0  0  0  0
    7.5050    0.8263   -0.5634 C   0  0  0  0  0  0  0  0  0  0  0  0
   13.4822   -3.1896    1.8976 H   0  0  0  0  0  0  0  0  0  0  0  0
   11.3663   -4.3112    2.5476 H   0  0  0  0  0  0  0  0  0  0  0  0
    9.1982   -3.3172    1.9316 H   0  0  0  0  0  0  0  0  0  0  0  0
    7.9260   -1.5341    0.8506 H   0  0  0  0  0  0  0  0  0  0  0  0
   12.1275    0.7214   -0.4533 H   0  0  0  0  0  0  0  0  0  0  0  0
   13.4242   -1.0756    0.6328 H   0  0  0  0  0  0  0  0  0  0  0  0
   10.9030    2.4964   -1.5209 H   0  0  0  0  0  0  0  0  0  0  0  0
    8.8144    3.5552   -2.1716 H   0  0  0  0  0  0  0  0  0  0  0  0
    6.4091    3.6192   -2.2316 H   0  0  0  0  0  0  0  0  0  0  0  0
    3.9456    3.7306   -2.3127 H   0  0  0  0  0  0  0  0  0  0  0  0
    1.7589    2.7677   -1.7508 H   0  0  0  0  0  0  0  0  0  0  0  0
    2.2292    2.1414    1.5592 H   0  0  0  0  0  0  0  0  0  0  0  0
    2.2797    3.3678    3.6703 H   0  0  0  0  0  0  0  0  0  0  0  0
    1.2087    3.9606    5.8108 H   0  0  0  0  0  0  0  0  0  0  0  0
   -1.0063    3.0076    6.4002 H   0  0  0  0  0  0  0  0  0  0  0  0
   -2.1428    1.4663    4.8477 H   0  0  0  0  0  0  0  0  0  0  0  0
   -2.1652    0.2457    2.7281 H   0  0  0  0  0  0  0  0  0  0  0  0
   -1.7914   -2.9611    1.5570 H   0  0  0  0  0  0  0  0  0  0  0  0
   -3.9864   -3.8907    2.1442 H   0  0  0  0  0  0  0  0  0  0  0  0
   -6.4484   -3.7019    2.1616 H   0  0  0  0  0  0  0  0  0  0  0  0
   -8.8512   -3.5530    2.2107 H   0  0  0  0  0  0  0  0  0  0  0  0
  -10.9262   -2.3920    1.7045 H   0  0  0  0  0  0  0  0  0  0  0  0
  -12.1294   -0.5253    0.7767 H   0  0  0  0  0  0  0  0  0  0  0  0
  -13.4034    1.3706   -0.1581 H   0  0  0  0  0  0  0  0  0  0  0  0
  -13.4364    3.5481   -1.3108 H   0  0  0  0  0  0  0  0  0  0  0  0
  -11.3103    4.6253   -2.0010 H   0  0  0  0  0  0  0  0  0  0  0  0
   -9.1563    3.5235   -1.5364 H   0  0  0  0  0  0  0  0  0  0  0  0
   -7.9067    1.6423   -0.6066 H   0  0  0  0  0  0  0  0  0  0  0  0
   -6.1217    0.6433   -0.1716 H   0  0  0  0  0  0  0  0  0  0  0  0
   -3.6979    0.4716   -0.1977 H   0  0  0  0  0  0  0  0  0  0  0  0
   -2.2464   -2.2659   -1.6608 H   0  0  0  0  0  0  0  0  0  0  0  0
   -2.2867   -3.5015   -3.7703 H   0  0  0  0  0  0  0  0  0  0  0  0
   -1.2023   -4.1109   -5.8982 H   0  0  0  0  0  0  0  0  0  0  0  0
    1.0257   -3.1773   -6.4722 H   0  0  0  0  0  0  0  0  0  0  0  0
    2.1586   -1.6361   -4.9168 H   0  0  0  0  0  0  0  0  0  0  0  0
    2.1704   -0.4050   -2.8041 H   0  0  0  0  0  0  0  0  0  0  0  0
    3.6990   -0.5316    0.2116 H   0  0  0  0  0  0  0  0  0  0  0  0
    6.1278   -0.6255    0.2853 H   0  0  0  0  0  0  0  0  0  0  0  0
  1  2  4  0
  2  3  4  0
  3  4  4  0
  4  5  4  0
  5  6  4  0
  6  7  4  0
  7  8  4  0
  8  9  4  0
  9 10  4  0
  7 11  4  0
 11 12  4  0
 12 13  4  0
 13 14  4  0
 14 15  4  0
 15 16  4  0
 16 17  4  0
 17 18  4  0
 18 19  1  0
 19 20  4  0
 20 21  4  0
 21 22  4  0
 22 23  4  0
 23 24  4  0
 24 25  4  0
 25 26  4  0
 26 27  4  0
 27 28  4  0
 28 29  4  0
 29 30  4  0
 30 31  1  0
 31 32  4  0
 32 33  4  0
 33 34  4  0
 34 35  4  0
 35 36  4  0
 36 37  4  0
 37 38  4  0
 38 39  4  0
 39 40  4  0
 40 41  4  0
 41 42  4  0
 42 43  4  0
 43 44  4  0
 44 45  4  0
 45 46  4  0
 46 47  4  0
 47 48  4  0
 48 49  4  0
 49 50  4  0
 50 51  4  0
 51 52  4  0
 30 53  4  0
 53 54  4  0
 54 55  4  0
 55 56  4  0
 56 57  4  0
 57 58  4  0
 58 59  4  0
 59 60  4  0
 60 61  4  0
 61 62  4  0
 18 63  4  0
 63 64  4  0
 64 65  4  0
 65 66  4  0
 10  1  4  0
 66 13  4  0
  9  4  4  0
 64 15  4  0
 66  6  4  0
 62 19  4  0
 29 20  4  0
 52 31  4  0
 62 53  4  0
 27 22  4  0
 51 34  4  0
 60 55  4  0
 49 36  4  0
 48 39  4  0
 46 41  4  0
  1 67  1  0
  2 68  1  0
  3 69  1  0
  5 70  1  0
  8 71  1  0
 10 72  1  0
 11 73  1  0
 12 74  1  0
 14 75  1  0
 16 76  1  0
 17 77  1  0
 21 78  1  0
 23 79  1  0
 24 80  1  0
 25 81  1  0
 26 82  1  0
 28 83  1  0
 32 84  1  0
 33 85  1  0
 35 86  1  0
 37 87  1  0
 38 88  1  0
 40 89  1  0
 42 90  1  0
 43 91  1  0
 44 92  1  0
 45 93  1  0
 47 94  1  0
 50 95  1  0
 52 96  1  0
 54 97  1  0
 56 98  1  0
 57 99  1  0
 58100  1  0
 59101  1  0
 61102  1  0
 63103  1  0
 65104  1  0
M  END
