
     RDKit          3D

104118  0  0  0  0  0  0  0  0999 V2000
    0.1762    5.8510   -2.3301 C   0  0  0  0  0  0  0  0  0  0  0  0
    0.8996    4.6662   -2.4090 C   0  0  0  0  0  0  0  0  0  0  0  0
    0.3077    3.4640   -2.0215 C   0  0  0  0  0  0  0  0  0  0  0  0
   -1.0114    3.4313   -1.5394 C   0  0  0  0  0  0  0  0  0  0  0  0
   -1.6083    2.2318   -1.1076 C   0  0  0  0  0  0  0  0  0  0  0  0
   -2.9352    2.1657   -0.6103 C   0  0  0  0  0  0  0  0  0  0  0  0
   -3.6658    3.3783   -0.5937 C   0  0  0  0  0  0  0  0  0  0  0  0
   -3.0693    4.5817   -1.0102 C   0  0  0  0  0  0  0  0  0  0  0  0
   -1.7471    4.6267   -1.4733 C   0  0  0  0  0  0  0  0  0  0  0  0
   -1.1414    5.8317   -1.8701 C   0  0  0  0  0  0  0  0  0  0  0  0
   -4.9944    3.3827   -0.1628 C   0  0  0  0  0  0  0  0  0  0  0  0
   -5.6170    2.2054    0.2420 C   0  0  0  0  0  0  0  0  0  0  0  0
   -4.9227    0.9930    0.2512 C   0  0  0  0  0  0  0  0  0  0  0  0
   -5.5804   -0.1826    0.6501 C   0  0  0  0  0  0  0  0  0  0  0  0
   -4.9286   -1.4240    0.6874 C   0  0  0  0  0  0  0  0  0  0  0  0
   -5.6265   -2.5846    1.0585 C   0  0  0  0  0  0  0  0  0  0  0  0
   -4.9912   -3.8229    1.0991 C   0  0  0  0  0  0  0  0  0  0  0  0
   -3.6399   -3.9145    0.7881 C   0  0  0  0  0  0  0  0  0  0  0  0
   -2.9056   -2.7685    0.4295 C   0  0  0  0  0  0  0  0  0  0  0  0
   -1.4465   -2.9108    0.1629 C   0  0  0  0  0  0  0  0  0  0  0  0
   -0.5308   -2.9001    1.2623 C   0  0  0  0  0  0  0  0  0  0  0  0
   -0.9600   -2.8167    2.6152 C   0  0  0  0  0  0  0  0  0  0  0  0
   -0.0753   -2.8019    3.7044 C   0  0  0  0  0  0  0  0  0  0  0  0
   -0.5315   -2.7085    5.0303 C   0  0  0  0  0  0  0  0  0  0  0  0
    0.3701   -2.6927    6.0952 C   0  0  0  0  0  0  0  0  0  0  0  0
    1.7366   -2.7712    5.8470 C   0  0  0  0  0  0  0  0  0  0  0  0
    2.1999   -2.8657    4.5344 C   0  0  0  0  0  0  0  0  0  0  0  0
    1.3001   -2.8804    3.4549 C   0  0  0  0  0  0  0  0  0  0  0  0
    1.7397   -2.9603    2.1254 C   0  0  0  0  0  0  0  0  0  0  0  0
    0.8572   -2.9529    1.0113 C   0  0  0  0  0  0  0  0  0  0  0  0
    1.3272   -2.9625   -0.3388 C   0  0  0  0  0  0  0  0  0  0  0  0
    2.7913   -2.8713   -0.6104 C   0  0  0  0  0  0  0  0  0  0  0  0
    3.4956   -1.6295   -0.5247 C   0  0  0  0  0  0  0  0  0  0  0  0
    2.8992   -0.4121   -0.1031 C   0  0  0  0  0  0  0  0  0  0  0  0
    3.5966    0.8158    0.0209 C   0  0  0  0  0  0  0  0  0  0  0  0
    4.9498    0.8097   -0.3808 C   0  0  0  0  0  0  0  0  0  0  0  0
    5.5619   -0.3829   -0.8031 C   0  0  0  0  0  0  0  0  0  0  0  0
    4.8643   -1.5991   -0.8565 C   0  0  0  0  0  0  0  0  0  0  0  0
    5.5198   -2.7817   -1.2359 C   0  0  0  0  0  0  0  0  0  0  0  0
    4.8402   -3.9960   -1.2837 C   0  0  0  0  0  0  0  0  0  0  0  0
    3.4862   -4.0410   -0.9723 C   0  0  0  0  0  0  0  0  0  0  0  0
    5.6888    1.9951   -0.3475 C   0  0  0  0  0  0  0  0  0  0  0  0
    5.1124    3.1837    0.0914 C   0  0  0  0  0  0  0  0  0  0  0  0
    3.7887    3.2165    0.5375 C   0  0  0  0  0  0  0  0  0  0  0  0
    3.2456    4.4269    1.0026 C   0  0  0  0  0  0  0  0  0  0  0  0
    1.9371    4.5060    1.4982 C   0  0  0  0  0  0  0  0  0  0  0  0
    1.3955    5.7176    1.9605 C   0  0  0  0  0  0  0  0  0  0  0  0
    0.0938    5.7735    2.4598 C   0  0  0  0  0  0  0  0  0  0  0  0
   -0.6812    4.6199    2.5033 C   0  0  0  0  0  0  0  0  0  0  0  0
   -0.1547    3.4110    2.0466 C   0  0  0  0  0  0  0  0  0  0  0  0
    1.1528    3.3405    1.5348 C   0  0  0  0  0  0  0  0  0  0  0  0
    1.6941    2.1347    1.0487 C   0  0  0  0  0  0  0  0  0  0  0  0
    3.0117    2.0335    0.5276 C   0  0  0  0  0  0  0  0  0  0  0  0
    0.4096   -3.0015   -1.4377 C   0  0  0  0  0  0  0  0  0  0  0  0
    0.8351   -3.0234   -2.7945 C   0  0  0  0  0  0  0  0  0  0  0  0
   -0.0522   -3.0861   -3.8809 C   0  0  0  0  0  0  0  0  0  0  0  0
    0.4018   -3.1243   -5.2109 C   0  0  0  0  0  0  0  0  0  0  0  0
   -0.5016   -3.1959   -6.2722 C   0  0  0  0  0  0  0  0  0  0  0  0
   -1.8685   -3.2263   -6.0168 C   0  0  0  0  0  0  0  0  0  0  0  0
   -2.3300   -3.1830   -4.7007 C   0  0  0  0  0  0  0  0  0  0  0  0
   -1.4283   -3.1141   -3.6245 C   0  0  0  0  0  0  0  0  0  0  0  0
   -1.8659   -3.0664   -2.2926 C   0  0  0  0  0  0  0  0  0  0  0  0
   -0.9793   -3.0018   -1.1837 C   0  0  0  0  0  0  0  0  0  0  0  0
   -3.5626   -1.5013    0.3527 C   0  0  0  0  0  0  0  0  0  0  0  0
   -2.9197   -0.3018   -0.0522 C   0  0  0  0  0  0  0  0  0  0  0  0
   -3.5687    0.9561   -0.1454 C   0  0  0  0  0  0  0  0  0  0  0  0
    0.6375    6.7900   -2.6221 H   0  0  0  0  0  0  0  0  0  0  0  0
    1.9285    4.6719   -2.7588 H   0  0  0  0  0  0  0  0  0  0  0  0
    0.8958    2.5503   -2.0780 H   0  0  0  0  0  0  0  0  0  0  0  0
   -1.0049    1.3296   -1.1688 H   0  0  0  0  0  0  0  0  0  0  0  0
   -3.6456    5.5050   -0.9745 H   0  0  0  0  0  0  0  0  0  0  0  0
   -1.6916    6.7679   -1.8145 H   0  0  0  0  0  0  0  0  0  0  0  0
   -5.5702    4.3063   -0.1507 H   0  0  0  0  0  0  0  0  0  0  0  0
   -6.6586    2.2493    0.5538 H   0  0  0  0  0  0  0  0  0  0  0  0
   -6.6315   -0.1307    0.9321 H   0  0  0  0  0  0  0  0  0  0  0  0
   -6.6830   -2.5320    1.3143 H   0  0  0  0  0  0  0  0  0  0  0  0
   -5.5474   -4.7131    1.3800 H   0  0  0  0  0  0  0  0  0  0  0  0
   -3.1454   -4.8834    0.8355 H   0  0  0  0  0  0  0  0  0  0  0  0
   -2.0242   -2.7533    2.8394 H   0  0  0  0  0  0  0  0  0  0  0  0
   -1.5967   -2.6441    5.2412 H   0  0  0  0  0  0  0  0  0  0  0  0
    0.0043   -2.6172    7.1156 H   0  0  0  0  0  0  0  0  0  0  0  0
    2.4429   -2.7564    6.6727 H   0  0  0  0  0  0  0  0  0  0  0  0
    3.2716   -2.9218    4.3569 H   0  0  0  0  0  0  0  0  0  0  0  0
    2.8149   -3.0157    1.9590 H   0  0  0  0  0  0  0  0  0  0  0  0
    1.8432   -0.4307    0.1517 H   0  0  0  0  0  0  0  0  0  0  0  0
    6.6147   -0.3671   -1.0837 H   0  0  0  0  0  0  0  0  0  0  0  0
    6.5784   -2.7664   -1.4883 H   0  0  0  0  0  0  0  0  0  0  0  0
    5.3645   -4.9043   -1.5692 H   0  0  0  0  0  0  0  0  0  0  0  0
    2.9592   -4.9923   -1.0234 H   0  0  0  0  0  0  0  0  0  0  0  0
    6.7304    2.0073   -0.6626 H   0  0  0  0  0  0  0  0  0  0  0  0
    5.7231    4.0847    0.1017 H   0  0  0  0  0  0  0  0  0  0  0  0
    3.8564    5.3282    0.9863 H   0  0  0  0  0  0  0  0  0  0  0  0
    1.9852    6.6306    1.9303 H   0  0  0  0  0  0  0  0  0  0  0  0
   -0.3146    6.7177    2.8095 H   0  0  0  0  0  0  0  0  0  0  0  0
   -1.6987    4.6578    2.8824 H   0  0  0  0  0  0  0  0  0  0  0  0
   -0.7837    2.5235    2.0767 H   0  0  0  0  0  0  0  0  0  0  0  0
    1.0575    1.2541    1.0946 H   0  0  0  0  0  0  0  0  0  0  0  0
    1.8991   -2.9928   -3.0250 H   0  0  0  0  0  0  0  0  0  0  0  0
    1.4674   -3.0980   -5.4275 H   0  0  0  0  0  0  0  0  0  0  0  0
   -0.1373   -3.2263   -7.2955 H   0  0  0  0  0  0  0  0  0  0  0  0
   -2.5766   -3.2803   -6.8395 H   0  0  0  0  0  0  0  0  0  0  0  0
   -3.4022   -3.2011   -4.5179 H   0  0  0  0  0  0  0  0  0  0  0  0
   -2.9418   -3.0785   -2.1205 H   0  0  0  0  0  0  0  0  0  0  0  0
   -1.8656   -0.3585   -0.3107 H   0  0  0  0  0  0  0  0  0  0  0  0
  1  2  4  0
  2  3  4  0
  3  4  4  0
  4  5  4  0
  5  6  4  0
  6  7  4  0
  7  8  4  0
  8  9  4  0
  9 10  4  0
  7 11  4  0
 11 12  4  0
 12 13  4  0
 13 14  4  0
 14 15  4  0
 15 16  4  0
 16 17  4  0
 17 18  4  0
 18 19  4  0
 19 20  1  0
 20 21  4  0
 21 22  4  0
 22 23  4  0
 23 24  4  0
 24 25  4  0
 25 26  4  0
 26 27  4  0
 27 28  4  0
 28 29  4  0
 29 30  4  0
 30 31  4  0
 31 32  1  0
 32 33  4  0
 33 34  4  0
 34 35  4  0
 35 36  4  0
 36 37  4  0
 37 38  4  0
 38 39  4  0
 39 40  4  0
 40 41  4  0
 36 42  4  0
 42 43  4  0
 43 44  4  0
 44 45  4  0
 45 46  4  0
 46 47  4  0
 47 48  4  0
 48 49  4  0
 49 50  4  0
 50 51  4  0
 51 52  4  0
 52 53  4  0
 31 54  4  0
 54 55  4  0
 55 56  4  0
 56 57  4  0
 57 58  4  0
 58 59  4  0
 59 60  4  0
 60 61  4  0
 61 62  4  0
 62 63  4  0
 19 64  4  0
 64 65  4  0
 65 66  4  0
 10  1  4  0
 66 13  4  0
  9  4  4  0
 64 15  4  0
 66  6  4  0
 63 20  4  0
 30 21  4  0
 41 32  4  0
 53 44  4  0
 63 54  4  0
 28 23  4  0
 38 33  4  0
 51 46  4  0
 61 56  4  0
 53 35  4  0
  1 67  1  0
  2 68  1  0
  3 69  1  0
  5 70  1  0
  8 71  1  0
 10 72  1  0
 11 73  1  0
 12 74  1  0
 14 75  1  0
 16 76  1  0
 17 77  1  0
 18 78  1  0
 22 79  1  0
 24 80  1  0
 25 81  1  0
 26 82  1  0
 27 83  1  0
 29 84  1  0
 34 85  1  0
 37 86  1  0
 39 87  1  0
 40 88  1  0
 41 89  1  0
 42 90  1  0
 43 91  1  0
 45 92  1  0
 47 93  1  0
 48 94  1  0
 49 95  1  0
 50 96  1  0
 52 97  1  0
 55 98  1  0
 57 99  1  0
 58100  1  0
 59101  1  0
 60102  1  0
 62103  1  0
 65104  1  0
M  END
