
     RDKit          3D

104118  0  0  0  0  0  0  0  0999 V2000
   -1.2349    6.0459    1.4150 C   0  0  0  0  0  0  0  0  0  0  0  0
   -0.3771    5.2701    0.6436 C   0  0  0  0  0  0  0  0  0  0  0  0
   -0.6501    3.9151    0.4505 C   0  0  0  0  0  0  0  0  0  0  0  0
   -1.7811    3.3145    1.0303 C   0  0  0  0  0  0  0  0  0  0  0  0
   -2.0668    1.9420    0.8587 C   0  0  0  0  0  0  0  0  0  0  0  0
   -3.2421    1.2956    1.3304 C   0  0  0  0  0  0  0  0  0  0  0  0
   -4.1029    2.1499    2.0755 C   0  0  0  0  0  0  0  0  0  0  0  0
   -3.7981    3.5024    2.3158 C   0  0  0  0  0  0  0  0  0  0  0  0
   -2.6540    4.1036    1.7875 C   0  0  0  0  0  0  0  0  0  0  0  0
   -2.3703    5.4673    1.9826 C   0  0  0  0  0  0  0  0  0  0  0  0
   -5.3059    1.6724    2.5743 C   0  0  0  0  0  0  0  0  0  0  0  0
   -5.7111    0.3768    2.3088 C   0  0  0  0  0  0  0  0  0  0  0  0
   -4.9197   -0.4936    1.5597 C   0  0  0  0  0  0  0  0  0  0  0  0
   -5.4685   -1.7583    1.3162 C   0  0  0  0  0  0  0  0  0  0  0  0
   -4.8105   -2.7305    0.5701 C   0  0  0  0  0  0  0  0  0  0  0  0
   -5.4323   -3.9708    0.3319 C   0  0  0  0  0  0  0  0  0  0  0  0
   -4.7954   -4.9661   -0.4026 C   0  0  0  0  0  0  0  0  0  0  0  0
   -3.5272   -4.7311   -0.9055 C   0  0  0  0  0  0  0  0  0  0  0  0
   -2.9065   -3.5018   -0.6685 C   0  0  0  0  0  0  0  0  0  0  0  0
   -3.5254   -2.4595    0.0772 C   0  0  0  0  0  0  0  0  0  0  0  0
   -2.9190   -1.1711    0.3621 C   0  0  0  0  0  0  0  0  0  0  0  0
   -1.4807   -1.0322   -0.0456 C   0  0  0  0  0  0  0  0  0  0  0  0
   -0.4656   -1.5847    0.8068 C   0  0  0  0  0  0  0  0  0  0  0  0
   -0.7574   -2.1468    2.0792 C   0  0  0  0  0  0  0  0  0  0  0  0
    0.2097   -2.7561    2.8944 C   0  0  0  0  0  0  0  0  0  0  0  0
   -0.1179   -3.3211    4.1395 C   0  0  0  0  0  0  0  0  0  0  0  0
    0.8597   -3.9311    4.9269 C   0  0  0  0  0  0  0  0  0  0  0  0
    2.1759   -3.9809    4.4802 C   0  0  0  0  0  0  0  0  0  0  0  0
    2.5128   -3.4207    3.2469 C   0  0  0  0  0  0  0  0  0  0  0  0
    1.5349   -2.8063    2.4446 C   0  0  0  0  0  0  0  0  0  0  0  0
    1.8453   -2.2358    1.2008 C   0  0  0  0  0  0  0  0  0  0  0  0
    0.8764   -1.6148    0.3670 C   0  0  0  0  0  0  0  0  0  0  0  0
    1.2168   -1.0177   -0.8871 C   0  0  0  0  0  0  0  0  0  0  0  0
    2.6198   -1.1152   -1.4112 C   0  0  0  0  0  0  0  0  0  0  0  0
    3.6253   -0.0841   -1.1456 C   0  0  0  0  0  0  0  0  0  0  0  0
    4.8268   -0.2253   -1.8943 C   0  0  0  0  0  0  0  0  0  0  0  0
    5.0560   -1.3131   -2.7456 C   0  0  0  0  0  0  0  0  0  0  0  0
    4.1259   -2.3318   -2.9280 C   0  0  0  0  0  0  0  0  0  0  0  0
    4.4286   -3.4134   -3.7769 C   0  0  0  0  0  0  0  0  0  0  0  0
    3.5115   -4.4372   -3.9936 C   0  0  0  0  0  0  0  0  0  0  0  0
    2.2790   -4.3876   -3.3651 C   0  0  0  0  0  0  0  0  0  0  0  0
    1.9750   -3.3149   -2.5226 C   0  0  0  0  0  0  0  0  0  0  0  0
    2.8882   -2.2526   -2.2720 C   0  0  0  0  0  0  0  0  0  0  0  0
    5.8519    0.7178   -1.8204 C   0  0  0  0  0  0  0  0  0  0  0  0
    5.7609    1.8180   -0.9861 C   0  0  0  0  0  0  0  0  0  0  0  0
    4.6541    1.9911   -0.1671 C   0  0  0  0  0  0  0  0  0  0  0  0
    4.6651    3.0906    0.7112 C   0  0  0  0  0  0  0  0  0  0  0  0
    3.6393    3.3053    1.6348 C   0  0  0  0  0  0  0  0  0  0  0  0
    3.6635    4.3809    2.5409 C   0  0  0  0  0  0  0  0  0  0  0  0
    2.6388    4.5502    3.4725 C   0  0  0  0  0  0  0  0  0  0  0  0
    1.5852    3.6440    3.5130 C   0  0  0  0  0  0  0  0  0  0  0  0
    1.5526    2.5766    2.6144 C   0  0  0  0  0  0  0  0  0  0  0  0
    2.5687    2.4044    1.6578 C   0  0  0  0  0  0  0  0  0  0  0  0
    2.5427    1.3436    0.7261 C   0  0  0  0  0  0  0  0  0  0  0  0
    3.5741    1.0655   -0.2121 C   0  0  0  0  0  0  0  0  0  0  0  0
    0.2085   -0.4260   -1.7194 C   0  0  0  0  0  0  0  0  0  0  0  0
    0.5092    0.1893   -2.9643 C   0  0  0  0  0  0  0  0  0  0  0  0
   -0.4691    0.7315   -3.8123 C   0  0  0  0  0  0  0  0  0  0  0  0
   -0.1370    1.3377   -5.0363 C   0  0  0  0  0  0  0  0  0  0  0  0
   -1.1282    1.8704   -5.8614 C   0  0  0  0  0  0  0  0  0  0  0  0
   -2.4624    1.8007   -5.4740 C   0  0  0  0  0  0  0  0  0  0  0  0
   -2.8036    1.1989   -4.2621 C   0  0  0  0  0  0  0  0  0  0  0  0
   -1.8125    0.6613   -3.4228 C   0  0  0  0  0  0  0  0  0  0  0  0
   -2.1274    0.0604   -2.1952 C   0  0  0  0  0  0  0  0  0  0  0  0
   -1.1453   -0.4723   -1.3177 C   0  0  0  0  0  0  0  0  0  0  0  0
   -3.6395   -0.1098    1.0708 C   0  0  0  0  0  0  0  0  0  0  0  0
   -1.0237    7.1000    1.5705 H   0  0  0  0  0  0  0  0  0  0  0  0
    0.5097    5.7105    0.1957 H   0  0  0  0  0  0  0  0  0  0  0  0
    0.0355    3.3255   -0.1561 H   0  0  0  0  0  0  0  0  0  0  0  0
   -1.3270    1.3904    0.3000 H   0  0  0  0  0  0  0  0  0  0  0  0
   -4.4854    4.1140    2.8986 H   0  0  0  0  0  0  0  0  0  0  0  0
   -3.0382    6.0895    2.5735 H   0  0  0  0  0  0  0  0  0  0  0  0
   -5.9678    2.3138    3.1527 H   0  0  0  0  0  0  0  0  0  0  0  0
   -6.6793    0.0604    2.6943 H   0  0  0  0  0  0  0  0  0  0  0  0
   -6.4586   -1.9929    1.7088 H   0  0  0  0  0  0  0  0  0  0  0  0
   -6.4286   -4.1708    0.7213 H   0  0  0  0  0  0  0  0  0  0  0  0
   -5.2887   -5.9175   -0.5800 H   0  0  0  0  0  0  0  0  0  0  0  0
   -3.0139   -5.4961   -1.4819 H   0  0  0  0  0  0  0  0  0  0  0  0
   -1.9118   -3.3641   -1.0883 H   0  0  0  0  0  0  0  0  0  0  0  0
   -1.7799   -2.1239    2.4541 H   0  0  0  0  0  0  0  0  0  0  0  0
   -1.1428   -3.2898    4.5024 H   0  0  0  0  0  0  0  0  0  0  0  0
    0.5921   -4.3634    5.8870 H   0  0  0  0  0  0  0  0  0  0  0  0
    2.9418   -4.4522    5.0902 H   0  0  0  0  0  0  0  0  0  0  0  0
    3.5471   -3.4659    2.9129 H   0  0  0  0  0  0  0  0  0  0  0  0
    2.8850   -2.2731    0.8779 H   0  0  0  0  0  0  0  0  0  0  0  0
    6.0031   -1.3780   -3.2823 H   0  0  0  0  0  0  0  0  0  0  0  0
    5.3916   -3.4648   -4.2810 H   0  0  0  0  0  0  0  0  0  0  0  0
    3.7599   -5.2656   -4.6510 H   0  0  0  0  0  0  0  0  0  0  0  0
    1.5491   -5.1768   -3.5237 H   0  0  0  0  0  0  0  0  0  0  0  0
    0.9948   -3.3238   -2.0499 H   0  0  0  0  0  0  0  0  0  0  0  0
    6.7564    0.6078   -2.4168 H   0  0  0  0  0  0  0  0  0  0  0  0
    6.5909    2.5214   -0.9630 H   0  0  0  0  0  0  0  0  0  0  0  0
    5.5089    3.7795    0.7000 H   0  0  0  0  0  0  0  0  0  0  0  0
    4.4863    5.0916    2.5290 H   0  0  0  0  0  0  0  0  0  0  0  0
    2.6641    5.3850    4.1672 H   0  0  0  0  0  0  0  0  0  0  0  0
    0.7814    3.7698    4.2335 H   0  0  0  0  0  0  0  0  0  0  0  0
    0.7153    1.8815    2.6582 H   0  0  0  0  0  0  0  0  0  0  0  0
    1.6740    0.7065    0.7867 H   0  0  0  0  0  0  0  0  0  0  0  0
    1.5449    0.2528   -3.2961 H   0  0  0  0  0  0  0  0  0  0  0  0
    0.9017    1.3995   -5.3533 H   0  0  0  0  0  0  0  0  0  0  0  0
   -0.8570    2.3402   -6.8029 H   0  0  0  0  0  0  0  0  0  0  0  0
   -3.2385    2.2160   -6.1110 H   0  0  0  0  0  0  0  0  0  0  0  0
   -3.8510    1.1563   -3.9715 H   0  0  0  0  0  0  0  0  0  0  0  0
   -3.1780    0.0274   -1.9085 H   0  0  0  0  0  0  0  0  0  0  0  0
  1  2  4  0
  2  3  4  0
  3  4  4  0
  4  5  4  0
  5  6  4  0
  6  7  4  0
  7  8  4  0
  8  9  4  0
  9 10  4  0
  7 11  4  0
 11 12  4  0
 12 13  4  0
 13 14  4  0
 14 15  4  0
 15 16  4  0
 16 17  4  0
 17 18  4  0
 18 19  4  0
 19 20  4  0
 20 21  4  0
 21 22  1  0
 22 23  4  0
 23 24  4  0
 24 25  4  0
 25 26  4  0
 26 27  4  0
 27 28  4  0
 28 29  4  0
 29 30  4  0
 30 31  4  0
 31 32  4  0
 32 33  4  0
 33 34  1  0
 34 35  4  0
 35 36  4  0
 36 37  4  0
 37 38  4  0
 38 39  4  0
 39 40  4  0
 40 41  4  0
 41 42  4  0
 42 43  4  0
 36 44  4  0
 44 45  4  0
 45 46  4  0
 46 47  4  0
 47 48  4  0
 48 49  4  0
 49 50  4  0
 50 51  4  0
 51 52  4  0
 52 53  4  0
 53 54  4  0
 54 55  4  0
 33 56  4  0
 56 57  4  0
 57 58  4  0
 58 59  4  0
 59 60  4  0
 60 61  4  0
 61 62  4  0
 62 63  4  0
 63 64  4  0
 64 65  4  0
 21 66  4  0
 10  1  4  0
 66 13  4  0
  9  4  4  0
 20 15  4  0
 65 22  4  0
 66  6  4  0
 32 23  4  0
 43 34  4  0
 55 46  4  0
 65 56  4  0
 30 25  4  0
 55 35  4  0
 63 58  4  0
 43 38  4  0
 53 48  4  0
  1 67  1  0
  2 68  1  0
  3 69  1  0
  5 70  1  0
  8 71  1  0
 10 72  1  0
 11 73  1  0
 12 74  1  0
 14 75  1  0
 16 76  1  0
 17 77  1  0
 18 78  1  0
 19 79  1  0
 24 80  1  0
 26 81  1  0
 27 82  1  0
 28 83  1  0
 29 84  1  0
 31 85  1  0
 37 86  1  0
 39 87  1  0
 40 88  1  0
 41 89  1  0
 42 90  1  0
 44 91  1  0
 45 92  1  0
 47 93  1  0
 49 94  1  0
 50 95  1  0
 51 96  1  0
 52 97  1  0
 54 98  1  0
 57 99  1  0
 59100  1  0
 60101  1  0
 61102  1  0
 62103  1  0
 64104  1  0
M  END
