
     RDKit          3D

104118  0  0  0  0  0  0  0  0999 V2000
   -9.2345    4.9879   -0.7921 C   0  0  0  0  0  0  0  0  0  0  0  0
   -9.9632    3.8051   -0.7229 C   0  0  0  0  0  0  0  0  0  0  0  0
   -9.2988    2.5850   -0.5859 C   0  0  0  0  0  0  0  0  0  0  0  0
   -7.8955    2.5316   -0.5168 C   0  0  0  0  0  0  0  0  0  0  0  0
   -7.2052    1.3109   -0.3787 C   0  0  0  0  0  0  0  0  0  0  0  0
   -5.7885    1.2198   -0.3069 C   0  0  0  0  0  0  0  0  0  0  0  0
   -5.0843    2.4432   -0.3830 C   0  0  0  0  0  0  0  0  0  0  0  0
   -5.7643    3.6662   -0.5200 C   0  0  0  0  0  0  0  0  0  0  0  0
   -7.1616    3.7274   -0.5878 C   0  0  0  0  0  0  0  0  0  0  0  0
   -7.8413    4.9501   -0.7249 C   0  0  0  0  0  0  0  0  0  0  0  0
   -3.6945    2.4437   -0.3225 C   0  0  0  0  0  0  0  0  0  0  0  0
   -2.9883    1.2516   -0.1908 C   0  0  0  0  0  0  0  0  0  0  0  0
   -3.6314    0.0001   -0.1102 C   0  0  0  0  0  0  0  0  0  0  0  0
   -2.8936   -1.2259    0.0228 C   0  0  0  0  0  0  0  0  0  0  0  0
   -1.3942   -1.1976    0.0678 C   0  0  0  0  0  0  0  0  0  0  0  0
   -0.7286   -1.0819    1.3284 C   0  0  0  0  0  0  0  0  0  0  0  0
   -1.4351   -0.9874    2.5572 C   0  0  0  0  0  0  0  0  0  0  0  0
   -0.7983   -0.8723    3.8023 C   0  0  0  0  0  0  0  0  0  0  0  0
   -1.5252   -0.7788    5.0017 C   0  0  0  0  0  0  0  0  0  0  0  0
   -0.8679   -0.6646    6.2273 C   0  0  0  0  0  0  0  0  0  0  0  0
    0.5223   -0.6431    6.2680 C   0  0  0  0  0  0  0  0  0  0  0  0
    1.2535   -0.7354    5.0830 C   0  0  0  0  0  0  0  0  0  0  0  0
    0.6014   -0.8501    3.8431 C   0  0  0  0  0  0  0  0  0  0  0  0
    1.3131   -0.9430    2.6373 C   0  0  0  0  0  0  0  0  0  0  0  0
    0.6825   -1.0584    1.3694 C   0  0  0  0  0  0  0  0  0  0  0  0
    1.4233   -1.1492    0.1494 C   0  0  0  0  0  0  0  0  0  0  0  0
    2.9230   -1.1313    0.1921 C   0  0  0  0  0  0  0  0  0  0  0  0
    3.6298    0.1176    0.1216 C   0  0  0  0  0  0  0  0  0  0  0  0
    2.9546    1.3504    0.0181 C   0  0  0  0  0  0  0  0  0  0  0  0
    3.6305    2.5652   -0.0483 C   0  0  0  0  0  0  0  0  0  0  0  0
    5.0206    2.6070   -0.0160 C   0  0  0  0  0  0  0  0  0  0  0  0
    5.6696    3.8523   -0.0847 C   0  0  0  0  0  0  0  0  0  0  0  0
    7.0657    3.9568   -0.0563 C   0  0  0  0  0  0  0  0  0  0  0  0
    7.7146    5.2017   -0.1238 C   0  0  0  0  0  0  0  0  0  0  0  0
    9.1072    5.2820   -0.0934 C   0  0  0  0  0  0  0  0  0  0  0  0
    9.8665    4.1207    0.0044 C   0  0  0  0  0  0  0  0  0  0  0  0
    9.2326    2.8789    0.0718 C   0  0  0  0  0  0  0  0  0  0  0  0
    7.8303    2.7823    0.0427 C   0  0  0  0  0  0  0  0  0  0  0  0
    7.1711    1.5389    0.1107 C   0  0  0  0  0  0  0  0  0  0  0  0
    5.7563    1.4039    0.0850 C   0  0  0  0  0  0  0  0  0  0  0  0
    5.0476    0.1433    0.1549 C   0  0  0  0  0  0  0  0  0  0  0  0
    5.7060   -1.1050    0.2576 C   0  0  0  0  0  0  0  0  0  0  0  0
    5.0368   -2.3370    0.3291 C   0  0  0  0  0  0  0  0  0  0  0  0
    5.7676   -3.5354    0.4300 C   0  0  0  0  0  0  0  0  0  0  0  0
    5.1252   -4.7697    0.5033 C   0  0  0  0  0  0  0  0  0  0  0  0
    3.7404   -4.8217    0.4765 C   0  0  0  0  0  0  0  0  0  0  0  0
    3.0055   -3.6390    0.3757 C   0  0  0  0  0  0  0  0  0  0  0  0
    3.6315   -2.3682    0.2989 C   0  0  0  0  0  0  0  0  0  0  0  0
    0.7577   -1.2612   -1.1116 C   0  0  0  0  0  0  0  0  0  0  0  0
    1.4639   -1.3489   -2.3413 C   0  0  0  0  0  0  0  0  0  0  0  0
    0.8274   -1.4601   -3.5867 C   0  0  0  0  0  0  0  0  0  0  0  0
    1.5541   -1.5446   -4.7869 C   0  0  0  0  0  0  0  0  0  0  0  0
    0.8966   -1.6544   -6.0128 C   0  0  0  0  0  0  0  0  0  0  0  0
   -0.4937   -1.6803   -6.0526 C   0  0  0  0  0  0  0  0  0  0  0  0
   -1.2245   -1.5969   -4.8669 C   0  0  0  0  0  0  0  0  0  0  0  0
   -0.5721   -1.4865   -3.6270 C   0  0  0  0  0  0  0  0  0  0  0  0
   -1.2833   -1.4003   -2.4206 C   0  0  0  0  0  0  0  0  0  0  0  0
   -0.6531   -1.2867   -1.1523 C   0  0  0  0  0  0  0  0  0  0  0  0
   -3.5707   -2.4822    0.1073 C   0  0  0  0  0  0  0  0  0  0  0  0
   -2.9146   -3.7331    0.2408 C   0  0  0  0  0  0  0  0  0  0  0  0
   -3.6202   -4.9353    0.3198 C   0  0  0  0  0  0  0  0  0  0  0  0
   -5.0052   -4.9232    0.2672 C   0  0  0  0  0  0  0  0  0  0  0  0
   -5.6769   -3.7096    0.1358 C   0  0  0  0  0  0  0  0  0  0  0  0
   -4.9757   -2.4923    0.0553 C   0  0  0  0  0  0  0  0  0  0  0  0
   -5.6748   -1.2824   -0.0787 C   0  0  0  0  0  0  0  0  0  0  0  0
   -5.0485   -0.0168   -0.1660 C   0  0  0  0  0  0  0  0  0  0  0  0
   -9.7482    5.9397   -0.8985 H   0  0  0  0  0  0  0  0  0  0  0  0
  -11.0486    3.8302   -0.7754 H   0  0  0  0  0  0  0  0  0  0  0  0
   -9.8872    1.6716   -0.5341 H   0  0  0  0  0  0  0  0  0  0  0  0
   -7.8080    0.4088   -0.3277 H   0  0  0  0  0  0  0  0  0  0  0  0
   -5.1931    4.5917   -0.5754 H   0  0  0  0  0  0  0  0  0  0  0  0
   -7.2868    5.8841   -0.7806 H   0  0  0  0  0  0  0  0  0  0  0  0
   -3.1334    3.3742   -0.3778 H   0  0  0  0  0  0  0  0  0  0  0  0
   -1.9029    1.3252   -0.1516 H   0  0  0  0  0  0  0  0  0  0  0  0
   -2.5244   -1.0024    2.5538 H   0  0  0  0  0  0  0  0  0  0  0  0
   -2.6128   -0.7942    4.9869 H   0  0  0  0  0  0  0  0  0  0  0  0
   -1.4422   -0.5922    7.1469 H   0  0  0  0  0  0  0  0  0  0  0  0
    1.0390   -0.5546    7.2198 H   0  0  0  0  0  0  0  0  0  0  0  0
    2.3400   -0.7173    5.1315 H   0  0  0  0  0  0  0  0  0  0  0  0
    2.4008   -0.9225    2.6971 H   0  0  0  0  0  0  0  0  0  0  0  0
    1.8671    1.3905   -0.0126 H   0  0  0  0  0  0  0  0  0  0  0  0
    3.0455    3.4794   -0.1263 H   0  0  0  0  0  0  0  0  0  0  0  0
    5.0746    4.7611   -0.1619 H   0  0  0  0  0  0  0  0  0  0  0  0
    7.1376    6.1205   -0.2002 H   0  0  0  0  0  0  0  0  0  0  0  0
    9.5971    6.2507   -0.1461 H   0  0  0  0  0  0  0  0  0  0  0  0
   10.9515    4.1795    0.0286 H   0  0  0  0  0  0  0  0  0  0  0  0
    9.8439    1.9824    0.1482 H   0  0  0  0  0  0  0  0  0  0  0  0
    7.7972    0.6545    0.1869 H   0  0  0  0  0  0  0  0  0  0  0  0
    6.7922   -1.1369    0.2846 H   0  0  0  0  0  0  0  0  0  0  0  0
    6.8555   -3.5159    0.4519 H   0  0  0  0  0  0  0  0  0  0  0  0
    5.7063   -5.6846    0.5810 H   0  0  0  0  0  0  0  0  0  0  0  0
    3.2247   -5.7767    0.5330 H   0  0  0  0  0  0  0  0  0  0  0  0
    1.9203   -3.7229    0.3574 H   0  0  0  0  0  0  0  0  0  0  0  0
    2.5533   -1.3295   -2.3385 H   0  0  0  0  0  0  0  0  0  0  0  0
    2.6416   -1.5242   -4.7720 H   0  0  0  0  0  0  0  0  0  0  0  0
    1.4700   -1.7184   -6.9335 H   0  0  0  0  0  0  0  0  0  0  0  0
   -1.0107   -1.7645   -7.0045 H   0  0  0  0  0  0  0  0  0  0  0  0
   -2.3111   -1.6175   -4.9148 H   0  0  0  0  0  0  0  0  0  0  0  0
   -2.3710   -1.4221   -2.4809 H   0  0  0  0  0  0  0  0  0  0  0  0
   -1.8283   -3.7852    0.2858 H   0  0  0  0  0  0  0  0  0  0  0  0
   -3.0828   -5.8743    0.4219 H   0  0  0  0  0  0  0  0  0  0  0  0
   -5.5641   -5.8531    0.3278 H   0  0  0  0  0  0  0  0  0  0  0  0
   -6.7644   -3.7216    0.0959 H   0  0  0  0  0  0  0  0  0  0  0  0
   -6.7591   -1.3466   -0.1148 H   0  0  0  0  0  0  0  0  0  0  0  0
  1  2  4  0
  2  3  4  0
  3  4  4  0
  4  5  4  0
  5  6  4  0
  6  7  4  0
  7  8  4  0
  8  9  4  0
  9 10  4  0
  7 11  4  0
 11 12  4  0
 12 13  4  0
 13 14  4  0
 14 15  1  0
 15 16  4  0
 16 17  4  0
 17 18  4  0
 18 19  4  0
 19 20  4  0
 20 21  4  0
 21 22  4  0
 22 23  4  0
 23 24  4  0
 24 25  4  0
 25 26  4  0
 26 27  1  0
 27 28  4  0
 28 29  4  0
 29 30  4  0
 30 31  4  0
 31 32  4  0
 32 33  4  0
 33 34  4  0
 34 35  4  0
 35 36  4  0
 36 37  4  0
 37 38  4  0
 38 39  4  0
 39 40  4  0
 40 41  4  0
 41 42  4  0
 42 43  4  0
 43 44  4  0
 44 45  4  0
 45 46  4  0
 46 47  4  0
 47 48  4  0
 26 49  4  0
 49 50  4  0
 50 51  4  0
 51 52  4  0
 52 53  4  0
 53 54  4  0
 54 55  4  0
 55 56  4  0
 56 57  4  0
 57 58  4  0
 14 59  4  0
 59 60  4  0
 60 61  4  0
 61 62  4  0
 62 63  4  0
 63 64  4  0
 64 65  4  0
 65 66  4  0
 10  1  4  0
 66 13  4  0
  9  4  4  0
 58 15  4  0
 64 59  4  0
 66  6  4  0
 25 16  4  0
 48 27  4  0
 58 49  4  0
 23 18  4  0
 41 28  4  0
 48 43  4  0
 56 51  4  0
 40 31  4  0
 38 33  4  0
  1 67  1  0
  2 68  1  0
  3 69  1  0
  5 70  1  0
  8 71  1  0
 10 72  1  0
 11 73  1  0
 12 74  1  0
 17 75  1  0
 19 76  1  0
 20 77  1  0
 21 78  1  0
 22 79  1  0
 24 80  1  0
 29 81  1  0
 30 82  1  0
 32 83  1  0
 34 84  1  0
 35 85  1  0
 36 86  1  0
 37 87  1  0
 39 88  1  0
 42 89  1  0
 44 90  1  0
 45 91  1  0
 46 92  1  0
 47 93  1  0
 50 94  1  0
 52 95  1  0
 53 96  1  0
 54 97  1  0
 55 98  1  0
 57 99  1  0
 60100  1  0
 61101  1  0
 62102  1  0
 63103  1  0
 65104  1  0
M  END
