
     RDKit          3D

 96110  0  0  0  0  0  0  0  0999 V2000
    7.6630   -3.4736    0.7178 C   0  0  0  0  0  0  0  0  0  0  0  0
    8.3709   -2.2946    0.9337 C   0  0  0  0  0  0  0  0  0  0  0  0
    7.7054   -1.0606    0.9847 C   0  0  0  0  0  0  0  0  0  0  0  0
    6.2990   -1.0041    0.8146 C   0  0  0  0  0  0  0  0  0  0  0  0
    5.5970   -2.2049    0.5977 C   0  0  0  0  0  0  0  0  0  0  0  0
    6.2821   -3.4290    0.5510 C   0  0  0  0  0  0  0  0  0  0  0  0
    4.2198   -2.1493    0.4336 C   0  0  0  0  0  0  0  0  0  0  0  0
    3.5456   -0.9230    0.4807 C   0  0  0  0  0  0  0  0  0  0  0  0
    4.1855    0.3242    0.6901 C   0  0  0  0  0  0  0  0  0  0  0  0
    5.6004    0.2420    0.8611 C   0  0  0  0  0  0  0  0  0  0  0  0
    6.3561    1.4086    1.0844 C   0  0  0  0  0  0  0  0  0  0  0  0
    5.7168    2.6422    1.1396 C   0  0  0  0  0  0  0  0  0  0  0  0
    4.3369    2.7691    0.9756 C   0  0  0  0  0  0  0  0  0  0  0  0
    3.8173    4.0716    1.0529 C   0  0  0  0  0  0  0  0  0  0  0  0
    2.4660    4.3241    0.9008 C   0  0  0  0  0  0  0  0  0  0  0  0
    1.6151    3.2632    0.6640 C   0  0  0  0  0  0  0  0  0  0  0  0
    2.0962    1.9322    0.5787 C   0  0  0  0  0  0  0  0  0  0  0  0
    1.0380    0.9200    0.3036 C   0  0  0  0  0  0  0  0  0  0  0  0
    0.3206    0.3351    1.3962 C   0  0  0  0  0  0  0  0  0  0  0  0
    0.6185    0.6338    2.7531 C   0  0  0  0  0  0  0  0  0  0  0  0
   -0.0759    0.0697    3.8348 C   0  0  0  0  0  0  0  0  0  0  0  0
    0.2413    0.3844    5.1675 C   0  0  0  0  0  0  0  0  0  0  0  0
   -0.4680   -0.1876    6.2247 C   0  0  0  0  0  0  0  0  0  0  0  0
   -1.5023   -1.0800    5.9627 C   0  0  0  0  0  0  0  0  0  0  0  0
   -1.8245   -1.4008    4.6436 C   0  0  0  0  0  0  0  0  0  0  0  0
   -1.1149   -0.8318    3.5716 C   0  0  0  0  0  0  0  0  0  0  0  0
   -1.4163   -1.1415    2.2370 C   0  0  0  0  0  0  0  0  0  0  0  0
   -0.7194   -0.5830    1.1319 C   0  0  0  0  0  0  0  0  0  0  0  0
   -1.0411   -0.9124   -0.2233 C   0  0  0  0  0  0  0  0  0  0  0  0
   -2.0923   -1.9314   -0.4980 C   0  0  0  0  0  0  0  0  0  0  0  0
   -3.5015   -1.6368   -0.6995 C   0  0  0  0  0  0  0  0  0  0  0  0
   -4.3192   -2.7791   -0.9423 C   0  0  0  0  0  0  0  0  0  0  0  0
   -3.7962   -4.0818   -0.9815 C   0  0  0  0  0  0  0  0  0  0  0  0
   -2.4496   -4.3291   -0.7870 C   0  0  0  0  0  0  0  0  0  0  0  0
   -1.6067   -3.2625   -0.5483 C   0  0  0  0  0  0  0  0  0  0  0  0
   -5.6927   -2.6569   -1.1549 C   0  0  0  0  0  0  0  0  0  0  0  0
   -6.3344   -1.4235   -1.1431 C   0  0  0  0  0  0  0  0  0  0  0  0
   -7.7176   -1.3597   -1.3634 C   0  0  0  0  0  0  0  0  0  0  0  0
   -8.3874   -0.1398   -1.3603 C   0  0  0  0  0  0  0  0  0  0  0  0
   -7.6872    1.0452   -1.1363 C   0  0  0  0  0  0  0  0  0  0  0  0
   -6.2887    0.9931   -0.9103 C   0  0  0  0  0  0  0  0  0  0  0  0
   -5.5963    2.1979   -0.6847 C   0  0  0  0  0  0  0  0  0  0  0  0
   -6.2830    3.4219   -0.6871 C   0  0  0  0  0  0  0  0  0  0  0  0
   -7.6560    3.4622   -0.9103 C   0  0  0  0  0  0  0  0  0  0  0  0
   -8.3545    2.2791   -1.1335 C   0  0  0  0  0  0  0  0  0  0  0  0
   -4.2273    2.1462   -0.4614 C   0  0  0  0  0  0  0  0  0  0  0  0
   -3.5515    0.9201   -0.4626 C   0  0  0  0  0  0  0  0  0  0  0  0
   -4.1807   -0.3302   -0.6858 C   0  0  0  0  0  0  0  0  0  0  0  0
   -5.5882   -0.2525   -0.9106 C   0  0  0  0  0  0  0  0  0  0  0  0
   -0.3268   -0.3249   -1.3155 C   0  0  0  0  0  0  0  0  0  0  0  0
   -0.6303   -0.6220   -2.6711 C   0  0  0  0  0  0  0  0  0  0  0  0
    0.0564   -0.0530   -3.7543 C   0  0  0  0  0  0  0  0  0  0  0  0
   -0.2716   -0.3632   -5.0853 C   0  0  0  0  0  0  0  0  0  0  0  0
    0.4297    0.2123   -6.1453 C   0  0  0  0  0  0  0  0  0  0  0  0
    1.4659    1.1039   -5.8872 C   0  0  0  0  0  0  0  0  0  0  0  0
    1.7979    1.4207   -4.5693 C   0  0  0  0  0  0  0  0  0  0  0  0
    1.0963    0.8484   -3.4940 C   0  0  0  0  0  0  0  0  0  0  0  0
    1.4050    1.1548   -2.1596 C   0  0  0  0  0  0  0  0  0  0  0  0
    0.7132    0.5937   -1.0523 C   0  0  0  0  0  0  0  0  0  0  0  0
    3.5097    1.6318    0.7405 C   0  0  0  0  0  0  0  0  0  0  0  0
    7.7464    1.3400    1.2527 C   0  0  0  0  0  0  0  0  0  0  0  0
    8.4149    0.1202    1.2028 C   0  0  0  0  0  0  0  0  0  0  0  0
    8.1863   -4.4250    0.6801 H   0  0  0  0  0  0  0  0  0  0  0  0
    9.4496   -2.3453    1.0625 H   0  0  0  0  0  0  0  0  0  0  0  0
    5.7405   -4.3574    0.3843 H   0  0  0  0  0  0  0  0  0  0  0  0
    3.6418   -3.0556    0.2665 H   0  0  0  0  0  0  0  0  0  0  0  0
    2.4765   -0.9966    0.3453 H   0  0  0  0  0  0  0  0  0  0  0  0
    6.3189    3.5337    1.3156 H   0  0  0  0  0  0  0  0  0  0  0  0
    4.4753    4.9202    1.2360 H   0  0  0  0  0  0  0  0  0  0  0  0
    2.0825    5.3381    0.9633 H   0  0  0  0  0  0  0  0  0  0  0  0
    0.5509    3.4622    0.5387 H   0  0  0  0  0  0  0  0  0  0  0  0
    1.4255    1.3280    2.9850 H   0  0  0  0  0  0  0  0  0  0  0  0
    1.0473    1.0804    5.3894 H   0  0  0  0  0  0  0  0  0  0  0  0
   -0.2123    0.0645    7.2502 H   0  0  0  0  0  0  0  0  0  0  0  0
   -2.0586   -1.5267    6.7824 H   0  0  0  0  0  0  0  0  0  0  0  0
   -2.6360   -2.1002    4.4549 H   0  0  0  0  0  0  0  0  0  0  0  0
   -2.2315   -1.8420    2.0596 H   0  0  0  0  0  0  0  0  0  0  0  0
   -4.4474   -4.9345   -1.1687 H   0  0  0  0  0  0  0  0  0  0  0  0
   -2.0614   -5.3424   -0.8204 H   0  0  0  0  0  0  0  0  0  0  0  0
   -0.5457   -3.4578   -0.3944 H   0  0  0  0  0  0  0  0  0  0  0  0
   -6.2869   -3.5519   -1.3381 H   0  0  0  0  0  0  0  0  0  0  0  0
   -8.2921   -2.2665   -1.5414 H   0  0  0  0  0  0  0  0  0  0  0  0
   -9.4605   -0.1268   -1.5350 H   0  0  0  0  0  0  0  0  0  0  0  0
   -5.7486    4.3537   -0.5157 H   0  0  0  0  0  0  0  0  0  0  0  0
   -8.1808    4.4136   -0.9106 H   0  0  0  0  0  0  0  0  0  0  0  0
   -9.4274    2.3270   -1.3063 H   0  0  0  0  0  0  0  0  0  0  0  0
   -3.6573    3.0553   -0.2819 H   0  0  0  0  0  0  0  0  0  0  0  0
   -2.4900    0.9961   -0.2770 H   0  0  0  0  0  0  0  0  0  0  0  0
   -1.4371   -1.3169   -2.9013 H   0  0  0  0  0  0  0  0  0  0  0  0
   -1.0814   -1.0563   -5.3030 H   0  0  0  0  0  0  0  0  0  0  0  0
    0.1661   -0.0364   -7.1698 H   0  0  0  0  0  0  0  0  0  0  0  0
    2.0163    1.5535   -6.7093 H   0  0  0  0  0  0  0  0  0  0  0  0
    2.6108    2.1196   -4.3845 H   0  0  0  0  0  0  0  0  0  0  0  0
    2.2202    1.8559   -1.9845 H   0  0  0  0  0  0  0  0  0  0  0  0
    8.3280    2.2434    1.4255 H   0  0  0  0  0  0  0  0  0  0  0  0
    9.4938    0.1039    1.3369 H   0  0  0  0  0  0  0  0  0  0  0  0
  1  2  4  0
  2  3  4  0
  3  4  4  0
  4  5  4  0
  5  6  4  0
  5  7  4  0
  7  8  4  0
  8  9  4  0
  9 10  4  0
 10 11  4  0
 11 12  4  0
 12 13  4  0
 13 14  4  0
 14 15  4  0
 15 16  4  0
 16 17  4  0
 17 18  1  0
 18 19  4  0
 19 20  4  0
 20 21  4  0
 21 22  4  0
 22 23  4  0
 23 24  4  0
 24 25  4  0
 25 26  4  0
 26 27  4  0
 27 28  4  0
 28 29  4  0
 29 30  1  0
 30 31  4  0
 31 32  4  0
 32 33  4  0
 33 34  4  0
 34 35  4  0
 32 36  4  0
 36 37  4  0
 37 38  4  0
 38 39  4  0
 39 40  4  0
 40 41  4  0
 41 42  4  0
 42 43  4  0
 43 44  4  0
 44 45  4  0
 42 46  4  0
 46 47  4  0
 47 48  4  0
 48 49  4  0
 29 50  4  0
 50 51  4  0
 51 52  4  0
 52 53  4  0
 53 54  4  0
 54 55  4  0
 55 56  4  0
 56 57  4  0
 57 58  4  0
 58 59  4  0
 17 60  4  0
 11 61  4  0
 61 62  4  0
  6  1  4  0
 60  9  4  0
 62  3  4  0
 10  4  4  0
 60 13  4  0
 59 18  4  0
 28 19  4  0
 35 30  4  0
 49 37  4  0
 59 50  4  0
 26 21  4  0
 48 31  4  0
 57 52  4  0
 45 40  4  0
 49 41  4  0
  1 63  1  0
  2 64  1  0
  6 65  1  0
  7 66  1  0
  8 67  1  0
 12 68  1  0
 14 69  1  0
 15 70  1  0
 16 71  1  0
 20 72  1  0
 22 73  1  0
 23 74  1  0
 24 75  1  0
 25 76  1  0
 27 77  1  0
 33 78  1  0
 34 79  1  0
 35 80  1  0
 36 81  1  0
 38 82  1  0
 39 83  1  0
 43 84  1  0
 44 85  1  0
 45 86  1  0
 46 87  1  0
 47 88  1  0
 51 89  1  0
 53 90  1  0
 54 91  1  0
 55 92  1  0
 56 93  1  0
 58 94  1  0
 61 95  1  0
 62 96  1  0
M  END
