
     RDKit          3D

 96110  0  0  0  0  0  0  0  0999 V2000
   -7.3449    3.3723    2.6618 C   0  0  0  0  0  0  0  0  0  0  0  0
   -5.9659    3.3718    2.7947 C   0  0  0  0  0  0  0  0  0  0  0  0
   -5.1898    2.5231    1.9995 C   0  0  0  0  0  0  0  0  0  0  0  0
   -5.7614    1.6453    1.0417 C   0  0  0  0  0  0  0  0  0  0  0  0
   -7.1723    1.6692    0.9276 C   0  0  0  0  0  0  0  0  0  0  0  0
   -7.9431    2.5256    1.7335 C   0  0  0  0  0  0  0  0  0  0  0  0
   -7.8116    0.8359    0.0062 C   0  0  0  0  0  0  0  0  0  0  0  0
   -7.0896   -0.0306   -0.8181 C   0  0  0  0  0  0  0  0  0  0  0  0
   -7.7636   -0.8499   -1.7305 C   0  0  0  0  0  0  0  0  0  0  0  0
   -7.0611   -1.7173   -2.5623 C   0  0  0  0  0  0  0  0  0  0  0  0
   -5.6674   -1.7867   -2.5002 C   0  0  0  0  0  0  0  0  0  0  0  0
   -4.9608   -0.9669   -1.5810 C   0  0  0  0  0  0  0  0  0  0  0  0
   -3.5479   -1.0415   -1.5199 C   0  0  0  0  0  0  0  0  0  0  0  0
   -2.8849   -1.9376   -2.3889 C   0  0  0  0  0  0  0  0  0  0  0  0
   -3.5858   -2.7370   -3.2880 C   0  0  0  0  0  0  0  0  0  0  0  0
   -4.9712   -2.6617   -3.3420 C   0  0  0  0  0  0  0  0  0  0  0  0
   -2.8623   -0.2194   -0.5941 C   0  0  0  0  0  0  0  0  0  0  0  0
   -1.3776   -0.2356   -0.4546 C   0  0  0  0  0  0  0  0  0  0  0  0
   -0.5870    0.6703   -1.2286 C   0  0  0  0  0  0  0  0  0  0  0  0
   -1.1618    1.5964   -2.1410 C   0  0  0  0  0  0  0  0  0  0  0  0
   -0.4015    2.4927   -2.9083 C   0  0  0  0  0  0  0  0  0  0  0  0
   -0.9993    3.3970   -3.8037 C   0  0  0  0  0  0  0  0  0  0  0  0
   -0.2202    4.2767   -4.5563 C   0  0  0  0  0  0  0  0  0  0  0  0
    1.1643    4.2629   -4.4225 C   0  0  0  0  0  0  0  0  0  0  0  0
    1.7680    3.3699   -3.5361 C   0  0  0  0  0  0  0  0  0  0  0  0
    0.9926    2.4793   -2.7736 C   0  0  0  0  0  0  0  0  0  0  0  0
    1.5753    1.5697   -1.8775 C   0  0  0  0  0  0  0  0  0  0  0  0
    0.8193    0.6549   -1.0955 C   0  0  0  0  0  0  0  0  0  0  0  0
    1.4310   -0.2701   -0.1932 C   0  0  0  0  0  0  0  0  0  0  0  0
    2.9150   -0.2845   -0.0472 C   0  0  0  0  0  0  0  0  0  0  0  0
    3.4858    0.5117    0.9665 C   0  0  0  0  0  0  0  0  0  0  0  0
    4.8738    0.5765    1.2126 C   0  0  0  0  0  0  0  0  0  0  0  0
    5.7065   -0.2041    0.3720 C   0  0  0  0  0  0  0  0  0  0  0  0
    7.1077   -0.1813    0.5578 C   0  0  0  0  0  0  0  0  0  0  0  0
    7.6640    0.6080    1.5677 C   0  0  0  0  0  0  0  0  0  0  0  0
    6.8649    1.3816    2.4140 C   0  0  0  0  0  0  0  0  0  0  0  0
    7.4706    2.1547    3.4200 C   0  0  0  0  0  0  0  0  0  0  0  0
    6.7096    2.9348    4.2857 C   0  0  0  0  0  0  0  0  0  0  0  0
    5.3304    2.9500    4.1550 C   0  0  0  0  0  0  0  0  0  0  0  0
    4.7175    2.1863    3.1574 C   0  0  0  0  0  0  0  0  0  0  0  0
    5.4585    1.3797    2.2545 C   0  0  0  0  0  0  0  0  0  0  0  0
    7.9375   -0.9491   -0.2673 C   0  0  0  0  0  0  0  0  0  0  0  0
    7.3994   -1.7443   -1.2756 C   0  0  0  0  0  0  0  0  0  0  0  0
    6.0185   -1.7888   -1.4842 C   0  0  0  0  0  0  0  0  0  0  0  0
    5.1562   -1.0170   -0.6617 C   0  0  0  0  0  0  0  0  0  0  0  0
    3.7566   -1.0640   -0.8758 C   0  0  0  0  0  0  0  0  0  0  0  0
    3.2634   -1.8894   -1.9116 C   0  0  0  0  0  0  0  0  0  0  0  0
    4.1165   -2.6423   -2.7145 C   0  0  0  0  0  0  0  0  0  0  0  0
    5.4878   -2.5918   -2.5008 C   0  0  0  0  0  0  0  0  0  0  0  0
    0.6404   -1.1749    0.5817 C   0  0  0  0  0  0  0  0  0  0  0  0
    1.2168   -2.1066    1.4871 C   0  0  0  0  0  0  0  0  0  0  0  0
    0.4577   -2.9977    2.2606 C   0  0  0  0  0  0  0  0  0  0  0  0
    1.0585   -3.9031    3.1525 C   0  0  0  0  0  0  0  0  0  0  0  0
    0.2809   -4.7796    3.9104 C   0  0  0  0  0  0  0  0  0  0  0  0
   -1.1045   -4.7613    3.7851 C   0  0  0  0  0  0  0  0  0  0  0  0
   -1.7105   -3.8659    2.9027 C   0  0  0  0  0  0  0  0  0  0  0  0
   -0.9370   -2.9780    2.1351 C   0  0  0  0  0  0  0  0  0  0  0  0
   -1.5212   -2.0669    1.2411 C   0  0  0  0  0  0  0  0  0  0  0  0
   -0.7661   -1.1557    0.4534 C   0  0  0  0  0  0  0  0  0  0  0  0
   -3.5975    0.6514    0.2363 C   0  0  0  0  0  0  0  0  0  0  0  0
   -5.0053    0.7546    0.1990 C   0  0  0  0  0  0  0  0  0  0  0  0
   -5.6795   -0.0779   -0.7295 C   0  0  0  0  0  0  0  0  0  0  0  0
   -7.9552    4.0283    3.2761 H   0  0  0  0  0  0  0  0  0  0  0  0
   -5.4859    4.0294    3.5147 H   0  0  0  0  0  0  0  0  0  0  0  0
   -4.1145    2.5652    2.1472 H   0  0  0  0  0  0  0  0  0  0  0  0
   -9.0275    2.5400    1.6423 H   0  0  0  0  0  0  0  0  0  0  0  0
   -8.8975    0.8628   -0.0721 H   0  0  0  0  0  0  0  0  0  0  0  0
   -8.8489   -0.8215   -1.8042 H   0  0  0  0  0  0  0  0  0  0  0  0
   -7.6167   -2.3391   -3.2608 H   0  0  0  0  0  0  0  0  0  0  0  0
   -1.7998   -2.0236   -2.3744 H   0  0  0  0  0  0  0  0  0  0  0  0
   -3.0478   -3.4153   -3.9446 H   0  0  0  0  0  0  0  0  0  0  0  0
   -5.5046   -3.2928   -4.0493 H   0  0  0  0  0  0  0  0  0  0  0  0
   -2.2435    1.6257   -2.2677 H   0  0  0  0  0  0  0  0  0  0  0  0
   -2.0809    3.4191   -3.9207 H   0  0  0  0  0  0  0  0  0  0  0  0
   -0.6951    4.9698   -5.2456 H   0  0  0  0  0  0  0  0  0  0  0  0
    1.7769    4.9438   -5.0072 H   0  0  0  0  0  0  0  0  0  0  0  0
    2.8521    3.3712   -3.4441 H   0  0  0  0  0  0  0  0  0  0  0  0
    2.6617    1.5788   -1.7947 H   0  0  0  0  0  0  0  0  0  0  0  0
    2.7968    1.0922    1.5762 H   0  0  0  0  0  0  0  0  0  0  0  0
    8.7450    0.6180    1.7001 H   0  0  0  0  0  0  0  0  0  0  0  0
    8.5524    2.1540    3.5383 H   0  0  0  0  0  0  0  0  0  0  0  0
    7.1939    3.5257    5.0581 H   0  0  0  0  0  0  0  0  0  0  0  0
    4.7245    3.5535    4.8259 H   0  0  0  0  0  0  0  0  0  0  0  0
    3.6336    2.2349    3.1038 H   0  0  0  0  0  0  0  0  0  0  0  0
    9.0172   -0.9379   -0.1319 H   0  0  0  0  0  0  0  0  0  0  0  0
    8.0729   -2.3301   -1.8972 H   0  0  0  0  0  0  0  0  0  0  0  0
    2.1946   -1.9542   -2.1075 H   0  0  0  0  0  0  0  0  0  0  0  0
    3.7079   -3.2652   -3.5056 H   0  0  0  0  0  0  0  0  0  0  0  0
    6.1407   -3.1860   -3.1364 H   0  0  0  0  0  0  0  0  0  0  0  0
    2.2997   -2.1480    1.6002 H   0  0  0  0  0  0  0  0  0  0  0  0
    2.1406   -3.9289    3.2624 H   0  0  0  0  0  0  0  0  0  0  0  0
    0.7575   -5.4746    4.5966 H   0  0  0  0  0  0  0  0  0  0  0  0
   -1.7146   -5.4420    4.3728 H   0  0  0  0  0  0  0  0  0  0  0  0
   -2.7952   -3.8637    2.8168 H   0  0  0  0  0  0  0  0  0  0  0  0
   -2.6077   -2.0755    1.1607 H   0  0  0  0  0  0  0  0  0  0  0  0
   -3.0248    1.2624    0.9308 H   0  0  0  0  0  0  0  0  0  0  0  0
  1  2  4  0
  2  3  4  0
  3  4  4  0
  4  5  4  0
  5  6  4  0
  5  7  4  0
  7  8  4  0
  8  9  4  0
  9 10  4  0
 10 11  4  0
 11 12  4  0
 12 13  4  0
 13 14  4  0
 14 15  4  0
 15 16  4  0
 13 17  4  0
 17 18  1  0
 18 19  4  0
 19 20  4  0
 20 21  4  0
 21 22  4  0
 22 23  4  0
 23 24  4  0
 24 25  4  0
 25 26  4  0
 26 27  4  0
 27 28  4  0
 28 29  4  0
 29 30  1  0
 30 31  4  0
 31 32  4  0
 32 33  4  0
 33 34  4  0
 34 35  4  0
 35 36  4  0
 36 37  4  0
 37 38  4  0
 38 39  4  0
 39 40  4  0
 40 41  4  0
 34 42  4  0
 42 43  4  0
 43 44  4  0
 44 45  4  0
 45 46  4  0
 46 47  4  0
 47 48  4  0
 48 49  4  0
 29 50  4  0
 50 51  4  0
 51 52  4  0
 52 53  4  0
 53 54  4  0
 54 55  4  0
 55 56  4  0
 56 57  4  0
 57 58  4  0
 58 59  4  0
 17 60  4  0
 60 61  4  0
 61 62  4  0
  6  1  4  0
 62  8  4  0
 61  4  4  0
 16 11  4  0
 59 18  4  0
 62 12  4  0
 28 19  4  0
 46 30  4  0
 59 50  4  0
 26 21  4  0
 41 32  4  0
 49 44  4  0
 57 52  4  0
 45 33  4  0
 41 36  4  0
  1 63  1  0
  2 64  1  0
  3 65  1  0
  6 66  1  0
  7 67  1  0
  9 68  1  0
 10 69  1  0
 14 70  1  0
 15 71  1  0
 16 72  1  0
 20 73  1  0
 22 74  1  0
 23 75  1  0
 24 76  1  0
 25 77  1  0
 27 78  1  0
 31 79  1  0
 35 80  1  0
 37 81  1  0
 38 82  1  0
 39 83  1  0
 40 84  1  0
 42 85  1  0
 43 86  1  0
 47 87  1  0
 48 88  1  0
 49 89  1  0
 51 90  1  0
 53 91  1  0
 54 92  1  0
 55 93  1  0
 56 94  1  0
 58 95  1  0
 60 96  1  0
M  END
