
     RDKit          3D

 96110  0  0  0  0  0  0  0  0999 V2000
    9.4058   -4.8094    0.2323 C   0  0  0  0  0  0  0  0  0  0  0  0
   10.0724   -3.5888    0.1520 C   0  0  0  0  0  0  0  0  0  0  0  0
    9.3544   -2.3855    0.0896 C   0  0  0  0  0  0  0  0  0  0  0  0
    7.9385   -2.4101    0.1077 C   0  0  0  0  0  0  0  0  0  0  0  0
    7.2715   -3.6513    0.1889 C   0  0  0  0  0  0  0  0  0  0  0  0
    8.0135   -4.8406    0.2508 C   0  0  0  0  0  0  0  0  0  0  0  0
    5.8774   -3.6695    0.2057 C   0  0  0  0  0  0  0  0  0  0  0  0
    5.1486   -2.4776    0.1424 C   0  0  0  0  0  0  0  0  0  0  0  0
    5.7728   -1.2106    0.0615 C   0  0  0  0  0  0  0  0  0  0  0  0
    7.1934   -1.1986    0.0450 C   0  0  0  0  0  0  0  0  0  0  0  0
    7.8918    0.0257   -0.0344 C   0  0  0  0  0  0  0  0  0  0  0  0
    7.1783    1.2253   -0.0955 C   0  0  0  0  0  0  0  0  0  0  0  0
    5.7802    1.2468   -0.0802 C   0  0  0  0  0  0  0  0  0  0  0  0
    5.1118    2.4801   -0.1420 C   0  0  0  0  0  0  0  0  0  0  0  0
    3.7209    2.5469   -0.1295 C   0  0  0  0  0  0  0  0  0  0  0  0
    2.9639    1.3774   -0.0555 C   0  0  0  0  0  0  0  0  0  0  0  0
    1.4822    1.4371   -0.0430 C   0  0  0  0  0  0  0  0  0  0  0  0
    0.7654    1.4089   -1.2795 C   0  0  0  0  0  0  0  0  0  0  0  0
    1.4193    1.3103   -2.5379 C   0  0  0  0  0  0  0  0  0  0  0  0
    0.7332    1.2812   -3.7621 C   0  0  0  0  0  0  0  0  0  0  0  0
    1.4093    1.1832   -4.9908 C   0  0  0  0  0  0  0  0  0  0  0  0
    0.7031    1.1548   -6.1940 C   0  0  0  0  0  0  0  0  0  0  0  0
   -0.6860    1.2237   -6.1829 C   0  0  0  0  0  0  0  0  0  0  0  0
   -1.3671    1.3216   -4.9688 C   0  0  0  0  0  0  0  0  0  0  0  0
   -0.6654    1.3516   -3.7511 C   0  0  0  0  0  0  0  0  0  0  0  0
   -1.3259    1.4499   -2.5165 C   0  0  0  0  0  0  0  0  0  0  0  0
   -0.6456    1.4816   -1.2687 C   0  0  0  0  0  0  0  0  0  0  0  0
   -1.3359    1.5838   -0.0214 C   0  0  0  0  0  0  0  0  0  0  0  0
   -2.8161    1.6736   -0.0091 C   0  0  0  0  0  0  0  0  0  0  0  0
   -3.4550    2.9114   -0.0839 C   0  0  0  0  0  0  0  0  0  0  0  0
   -4.8456    2.9830   -0.0626 C   0  0  0  0  0  0  0  0  0  0  0  0
   -5.6309    1.8230    0.0364 C   0  0  0  0  0  0  0  0  0  0  0  0
   -7.0240    1.9400    0.0614 C   0  0  0  0  0  0  0  0  0  0  0  0
   -7.8501    0.8178    0.1633 C   0  0  0  0  0  0  0  0  0  0  0  0
   -9.2439    0.9639    0.1908 C   0  0  0  0  0  0  0  0  0  0  0  0
  -10.0782   -0.1484    0.2939 C   0  0  0  0  0  0  0  0  0  0  0  0
   -9.5382   -1.4351    0.3715 C   0  0  0  0  0  0  0  0  0  0  0  0
   -8.1319   -1.5998    0.3441 C   0  0  0  0  0  0  0  0  0  0  0  0
   -7.5881   -2.9000    0.4219 C   0  0  0  0  0  0  0  0  0  0  0  0
   -8.4413   -4.0091    0.5251 C   0  0  0  0  0  0  0  0  0  0  0  0
   -9.8237   -3.8400    0.5530 C   0  0  0  0  0  0  0  0  0  0  0  0
  -10.3689   -2.5604    0.4766 C   0  0  0  0  0  0  0  0  0  0  0  0
   -6.2027   -3.0559    0.3952 C   0  0  0  0  0  0  0  0  0  0  0  0
   -5.3625   -1.9426    0.2953 C   0  0  0  0  0  0  0  0  0  0  0  0
   -5.8616   -0.6212    0.2148 C   0  0  0  0  0  0  0  0  0  0  0  0
   -7.2737   -0.4687    0.2401 C   0  0  0  0  0  0  0  0  0  0  0  0
   -5.0252    0.5457    0.1127 C   0  0  0  0  0  0  0  0  0  0  0  0
   -3.6061    0.5128    0.0848 C   0  0  0  0  0  0  0  0  0  0  0  0
   -0.6197    1.6042    1.2156 C   0  0  0  0  0  0  0  0  0  0  0  0
   -1.2743    1.6987    2.4741 C   0  0  0  0  0  0  0  0  0  0  0  0
   -0.5893    1.7192    3.6989 C   0  0  0  0  0  0  0  0  0  0  0  0
   -1.2665    1.8121    4.9276 C   0  0  0  0  0  0  0  0  0  0  0  0
   -0.5610    1.8289    6.1314 C   0  0  0  0  0  0  0  0  0  0  0  0
    0.8279    1.7532    6.1210 C   0  0  0  0  0  0  0  0  0  0  0  0
    1.5097    1.6615    4.9068 C   0  0  0  0  0  0  0  0  0  0  0  0
    0.8092    1.6440    3.6883 C   0  0  0  0  0  0  0  0  0  0  0  0
    1.4707    1.5525    2.4535 C   0  0  0  0  0  0  0  0  0  0  0  0
    0.7912    1.5299    1.2049 C   0  0  0  0  0  0  0  0  0  0  0  0
    3.6368    0.1427    0.0064 C   0  0  0  0  0  0  0  0  0  0  0  0
    5.0528    0.0346   -0.0027 C   0  0  0  0  0  0  0  0  0  0  0  0
    9.2934    0.0332   -0.0515 C   0  0  0  0  0  0  0  0  0  0  0  0
   10.0166   -1.1573    0.0094 C   0  0  0  0  0  0  0  0  0  0  0  0
    9.9715   -5.7361    0.2804 H   0  0  0  0  0  0  0  0  0  0  0  0
   11.1600   -3.5838    0.1386 H   0  0  0  0  0  0  0  0  0  0  0  0
    7.5095   -5.8026    0.3141 H   0  0  0  0  0  0  0  0  0  0  0  0
    5.3377   -4.6121    0.2682 H   0  0  0  0  0  0  0  0  0  0  0  0
    4.0658   -2.5672    0.1580 H   0  0  0  0  0  0  0  0  0  0  0  0
    7.7252    2.1651   -0.1568 H   0  0  0  0  0  0  0  0  0  0  0  0
    5.6736    3.4105   -0.2002 H   0  0  0  0  0  0  0  0  0  0  0  0
    3.2293    3.5162   -0.1781 H   0  0  0  0  0  0  0  0  0  0  0  0
    2.5066    1.2517   -2.5751 H   0  0  0  0  0  0  0  0  0  0  0  0
    2.4955    1.1274   -5.0164 H   0  0  0  0  0  0  0  0  0  0  0  0
    1.2379    1.0786   -7.1369 H   0  0  0  0  0  0  0  0  0  0  0  0
   -1.2413    1.2014   -7.1168 H   0  0  0  0  0  0  0  0  0  0  0  0
   -2.4538    1.3739   -4.9777 H   0  0  0  0  0  0  0  0  0  0  0  0
   -2.4141    1.5016   -2.5366 H   0  0  0  0  0  0  0  0  0  0  0  0
   -2.8715    3.8266   -0.1573 H   0  0  0  0  0  0  0  0  0  0  0  0
   -5.3142    3.9636   -0.1222 H   0  0  0  0  0  0  0  0  0  0  0  0
   -7.4771    2.9286    0.0034 H   0  0  0  0  0  0  0  0  0  0  0  0
   -9.6975    1.9513    0.1330 H   0  0  0  0  0  0  0  0  0  0  0  0
  -11.1554    0.0016    0.3132 H   0  0  0  0  0  0  0  0  0  0  0  0
   -8.0333   -5.0157    0.5857 H   0  0  0  0  0  0  0  0  0  0  0  0
  -10.4762   -4.7053    0.6346 H   0  0  0  0  0  0  0  0  0  0  0  0
  -11.4506   -2.4477    0.5001 H   0  0  0  0  0  0  0  0  0  0  0  0
   -5.7566   -4.0465    0.4527 H   0  0  0  0  0  0  0  0  0  0  0  0
   -4.2937   -2.1383    0.2828 H   0  0  0  0  0  0  0  0  0  0  0  0
   -3.0795   -0.4368    0.1414 H   0  0  0  0  0  0  0  0  0  0  0  0
   -2.3617    1.7574    2.5111 H   0  0  0  0  0  0  0  0  0  0  0  0
   -2.3526    1.8712    4.9532 H   0  0  0  0  0  0  0  0  0  0  0  0
   -1.0963    1.9005    7.0745 H   0  0  0  0  0  0  0  0  0  0  0  0
    1.3827    1.7651    7.0554 H   0  0  0  0  0  0  0  0  0  0  0  0
    2.5960    1.6027    4.9163 H   0  0  0  0  0  0  0  0  0  0  0  0
    2.5586    1.4956    2.4744 H   0  0  0  0  0  0  0  0  0  0  0  0
    3.0201   -0.7510    0.0635 H   0  0  0  0  0  0  0  0  0  0  0  0
    9.8401    0.9720   -0.1129 H   0  0  0  0  0  0  0  0  0  0  0  0
   11.1034   -1.1146   -0.0062 H   0  0  0  0  0  0  0  0  0  0  0  0
  1  2  4  0
  2  3  4  0
  3  4  4  0
  4  5  4  0
  5  6  4  0
  5  7  4  0
  7  8  4  0
  8  9  4  0
  9 10  4  0
 10 11  4  0
 11 12  4  0
 12 13  4  0
 13 14  4  0
 14 15  4  0
 15 16  4  0
 16 17  1  0
 17 18  4  0
 18 19  4  0
 19 20  4  0
 20 21  4  0
 21 22  4  0
 22 23  4  0
 23 24  4  0
 24 25  4  0
 25 26  4  0
 26 27  4  0
 27 28  4  0
 28 29  1  0
 29 30  4  0
 30 31  4  0
 31 32  4  0
 32 33  4  0
 33 34  4  0
 34 35  4  0
 35 36  4  0
 36 37  4  0
 37 38  4  0
 38 39  4  0
 39 40  4  0
 40 41  4  0
 41 42  4  0
 39 43  4  0
 43 44  4  0
 44 45  4  0
 45 46  4  0
 45 47  4  0
 47 48  4  0
 28 49  4  0
 49 50  4  0
 50 51  4  0
 51 52  4  0
 52 53  4  0
 53 54  4  0
 54 55  4  0
 55 56  4  0
 56 57  4  0
 57 58  4  0
 16 59  4  0
 59 60  4  0
 11 61  4  0
 61 62  4  0
  6  1  4  0
 60  9  4  0
 62  3  4  0
 10  4  4  0
 60 13  4  0
 58 17  4  0
 27 18  4  0
 48 29  4  0
 58 49  4  0
 25 20  4  0
 47 32  4  0
 56 51  4  0
 46 34  4  0
 42 37  4  0
 46 38  4  0
  1 63  1  0
  2 64  1  0
  6 65  1  0
  7 66  1  0
  8 67  1  0
 12 68  1  0
 14 69  1  0
 15 70  1  0
 19 71  1  0
 21 72  1  0
 22 73  1  0
 23 74  1  0
 24 75  1  0
 26 76  1  0
 30 77  1  0
 31 78  1  0
 33 79  1  0
 35 80  1  0
 36 81  1  0
 40 82  1  0
 41 83  1  0
 42 84  1  0
 43 85  1  0
 44 86  1  0
 48 87  1  0
 50 88  1  0
 52 89  1  0
 53 90  1  0
 54 91  1  0
 55 92  1  0
 57 93  1  0
 59 94  1  0
 61 95  1  0
 62 96  1  0
M  END
