
     RDKit          3D

 68 76  0  0  0  0  0  0  0  0999 V2000
   -7.7758    0.2299    1.2131 C   0  0  0  0  0  0  0  0  0  0  0  0
   -7.0280    0.3961    2.3750 C   0  0  0  0  0  0  0  0  0  0  0  0
   -5.6338    0.3732    2.3165 C   0  0  0  0  0  0  0  0  0  0  0  0
   -4.9696    0.1853    1.0936 C   0  0  0  0  0  0  0  0  0  0  0  0
   -3.5670    0.1629    1.0186 C   0  0  0  0  0  0  0  0  0  0  0  0
   -2.9044   -0.0240   -0.2061 C   0  0  0  0  0  0  0  0  0  0  0  0
   -1.4231   -0.0396   -0.2679 C   0  0  0  0  0  0  0  0  0  0  0  0
   -0.7236   -1.2753   -0.1042 C   0  0  0  0  0  0  0  0  0  0  0  0
   -1.3953   -2.5085    0.1174 C   0  0  0  0  0  0  0  0  0  0  0  0
   -0.7258   -3.7313    0.2818 C   0  0  0  0  0  0  0  0  0  0  0  0
   -1.4189   -4.9348    0.4998 C   0  0  0  0  0  0  0  0  0  0  0  0
   -0.7287   -6.1371    0.6602 C   0  0  0  0  0  0  0  0  0  0  0  0
    0.6613   -6.1507    0.6044 C   0  0  0  0  0  0  0  0  0  0  0  0
    1.3590   -4.9614    0.3891 C   0  0  0  0  0  0  0  0  0  0  0  0
    0.6736   -3.7447    0.2262 C   0  0  0  0  0  0  0  0  0  0  0  0
    1.3514   -2.5350    0.0084 C   0  0  0  0  0  0  0  0  0  0  0  0
    0.6881   -1.2890   -0.1610 C   0  0  0  0  0  0  0  0  0  0  0  0
    1.3961   -0.0671   -0.3830 C   0  0  0  0  0  0  0  0  0  0  0  0
    2.8776   -0.0816   -0.4403 C   0  0  0  0  0  0  0  0  0  0  0  0
    3.6400    0.1143    0.7235 C   0  0  0  0  0  0  0  0  0  0  0  0
    5.0444    0.1005    0.6869 C   0  0  0  0  0  0  0  0  0  0  0  0
    5.8089    0.2968    1.8484 C   0  0  0  0  0  0  0  0  0  0  0  0
    7.2037    0.2780    1.7965 C   0  0  0  0  0  0  0  0  0  0  0  0
    7.8514    0.0638    0.5835 C   0  0  0  0  0  0  0  0  0  0  0  0
    7.1059   -0.1320   -0.5803 C   0  0  0  0  0  0  0  0  0  0  0  0
    5.7023   -0.1160   -0.5450 C   0  0  0  0  0  0  0  0  0  0  0  0
    4.9398   -0.3103   -1.7065 C   0  0  0  0  0  0  0  0  0  0  0  0
    3.5441   -0.2927   -1.6548 C   0  0  0  0  0  0  0  0  0  0  0  0
    0.6966    1.1686   -0.5476 C   0  0  0  0  0  0  0  0  0  0  0  0
    1.3681    2.4018   -0.7707 C   0  0  0  0  0  0  0  0  0  0  0  0
    0.6983    3.6248   -0.9322 C   0  0  0  0  0  0  0  0  0  0  0  0
    1.3909    4.8284   -1.1515 C   0  0  0  0  0  0  0  0  0  0  0  0
    0.7006    6.0313   -1.3082 C   0  0  0  0  0  0  0  0  0  0  0  0
   -0.6891    6.0452   -1.2473 C   0  0  0  0  0  0  0  0  0  0  0  0
   -1.3863    4.8560   -1.0299 C   0  0  0  0  0  0  0  0  0  0  0  0
   -0.7007    3.6388   -0.8714 C   0  0  0  0  0  0  0  0  0  0  0  0
   -1.3780    2.4292   -0.6525 C   0  0  0  0  0  0  0  0  0  0  0  0
   -0.7148    1.1824   -0.4884 C   0  0  0  0  0  0  0  0  0  0  0  0
   -3.6704   -0.1917   -1.3675 C   0  0  0  0  0  0  0  0  0  0  0  0
   -5.0659   -0.1714   -1.3085 C   0  0  0  0  0  0  0  0  0  0  0  0
   -5.7289    0.0163   -0.0864 C   0  0  0  0  0  0  0  0  0  0  0  0
   -7.1309    0.0405   -0.0103 C   0  0  0  0  0  0  0  0  0  0  0  0
   -8.8616    0.2472    1.2575 H   0  0  0  0  0  0  0  0  0  0  0  0
   -7.5285    0.5440    3.3284 H   0  0  0  0  0  0  0  0  0  0  0  0
   -5.0661    0.5034    3.2353 H   0  0  0  0  0  0  0  0  0  0  0  0
   -2.9744    0.2937    1.9231 H   0  0  0  0  0  0  0  0  0  0  0  0
   -2.4835   -2.5257    0.1658 H   0  0  0  0  0  0  0  0  0  0  0  0
   -2.5058   -4.9416    0.5465 H   0  0  0  0  0  0  0  0  0  0  0  0
   -1.2778   -7.0596    0.8288 H   0  0  0  0  0  0  0  0  0  0  0  0
    1.2038   -7.0840    0.7290 H   0  0  0  0  0  0  0  0  0  0  0  0
    2.4458   -4.9881    0.3490 H   0  0  0  0  0  0  0  0  0  0  0  0
    2.4395   -2.5733   -0.0288 H   0  0  0  0  0  0  0  0  0  0  0  0
    3.1249    0.2789    1.6690 H   0  0  0  0  0  0  0  0  0  0  0  0
    5.3201    0.4670    2.8052 H   0  0  0  0  0  0  0  0  0  0  0  0
    7.7826    0.4313    2.7035 H   0  0  0  0  0  0  0  0  0  0  0  0
    8.9373    0.0497    0.5413 H   0  0  0  0  0  0  0  0  0  0  0  0
    7.6300   -0.2982   -1.5188 H   0  0  0  0  0  0  0  0  0  0  0  0
    5.4277   -0.4777   -2.6641 H   0  0  0  0  0  0  0  0  0  0  0  0
    2.9744   -0.4464   -2.5693 H   0  0  0  0  0  0  0  0  0  0  0  0
    2.4562    2.4189   -0.8218 H   0  0  0  0  0  0  0  0  0  0  0  0
    2.4776    4.8344   -1.2010 H   0  0  0  0  0  0  0  0  0  0  0  0
    1.2490    6.9542   -1.4768 H   0  0  0  0  0  0  0  0  0  0  0  0
   -1.2317    6.9790   -1.3677 H   0  0  0  0  0  0  0  0  0  0  0  0
   -2.4728    4.8833   -0.9840 H   0  0  0  0  0  0  0  0  0  0  0  0
   -2.4659    2.4683   -0.6088 H   0  0  0  0  0  0  0  0  0  0  0  0
   -3.1792   -0.3378   -2.3277 H   0  0  0  0  0  0  0  0  0  0  0  0
   -5.6320   -0.3027   -2.2279 H   0  0  0  0  0  0  0  0  0  0  0  0
   -7.7327   -0.0876   -0.9073 H   0  0  0  0  0  0  0  0  0  0  0  0
  1  2  4  0
  2  3  4  0
  3  4  4  0
  4  5  4  0
  5  6  4  0
  6  7  1  0
  7  8  4  0
  8  9  4  0
  9 10  4  0
 10 11  4  0
 11 12  4  0
 12 13  4  0
 13 14  4  0
 14 15  4  0
 15 16  4  0
 16 17  4  0
 17 18  4  0
 18 19  1  0
 19 20  4  0
 20 21  4  0
 21 22  4  0
 22 23  4  0
 23 24  4  0
 24 25  4  0
 25 26  4  0
 26 27  4  0
 27 28  4  0
 18 29  4  0
 29 30  4  0
 30 31  4  0
 31 32  4  0
 32 33  4  0
 33 34  4  0
 34 35  4  0
 35 36  4  0
 36 37  4  0
 37 38  4  0
  6 39  4  0
 39 40  4  0
 40 41  4  0
 41 42  4  0
 42  1  4  0
 41  4  4  0
 38  7  4  0
 17  8  4  0
 28 19  4  0
 38 29  4  0
 15 10  4  0
 26 21  4  0
 36 31  4  0
  1 43  1  0
  2 44  1  0
  3 45  1  0
  5 46  1  0
  9 47  1  0
 11 48  1  0
 12 49  1  0
 13 50  1  0
 14 51  1  0
 16 52  1  0
 20 53  1  0
 22 54  1  0
 23 55  1  0
 24 56  1  0
 25 57  1  0
 27 58  1  0
 28 59  1  0
 30 60  1  0
 32 61  1  0
 33 62  1  0
 34 63  1  0
 35 64  1  0
 37 65  1  0
 39 66  1  0
 40 67  1  0
 42 68  1  0
M  END
