
     RDKit          3D

 80 90  0  0  0  0  0  0  0  0999 V2000
    9.9495    1.4674    0.7360 C   0  0  0  0  0  0  0  0  0  0  0  0
    9.2324    0.7166   -0.1967 C   0  0  0  0  0  0  0  0  0  0  0  0
    7.8299    0.6561   -0.1453 C   0  0  0  0  0  0  0  0  0  0  0  0
    7.0943   -0.0977   -1.0750 C   0  0  0  0  0  0  0  0  0  0  0  0
    5.6924   -0.1613   -1.0197 C   0  0  0  0  0  0  0  0  0  0  0  0
    4.9584   -0.9189   -1.9451 C   0  0  0  0  0  0  0  0  0  0  0  0
    3.5650   -0.9792   -1.8731 C   0  0  0  0  0  0  0  0  0  0  0  0
    2.8722   -0.2817   -0.8751 C   0  0  0  0  0  0  0  0  0  0  0  0
    1.3941   -0.3550   -0.7869 C   0  0  0  0  0  0  0  0  0  0  0  0
    0.7880   -1.3665    0.0213 C   0  0  0  0  0  0  0  0  0  0  0  0
    1.5515   -2.3172    0.7525 C   0  0  0  0  0  0  0  0  0  0  0  0
    0.9761   -3.3154    1.5535 C   0  0  0  0  0  0  0  0  0  0  0  0
    1.7603   -4.2394    2.2661 C   0  0  0  0  0  0  0  0  0  0  0  0
    1.1629   -5.2223    3.0562 C   0  0  0  0  0  0  0  0  0  0  0  0
   -0.2237   -5.2924    3.1435 C   0  0  0  0  0  0  0  0  0  0  0  0
   -1.0113   -4.3794    2.4405 C   0  0  0  0  0  0  0  0  0  0  0  0
   -0.4198   -3.3858    1.6409 C   0  0  0  0  0  0  0  0  0  0  0  0
   -1.1879   -2.4553    0.9232 C   0  0  0  0  0  0  0  0  0  0  0  0
   -0.6201   -1.4378    0.1082 C   0  0  0  0  0  0  0  0  0  0  0  0
   -1.4188   -0.4981   -0.6151 C   0  0  0  0  0  0  0  0  0  0  0  0
   -2.8970   -0.5781   -0.5291 C   0  0  0  0  0  0  0  0  0  0  0  0
   -3.6232   -1.3631   -1.4341 C   0  0  0  0  0  0  0  0  0  0  0  0
   -5.0148   -1.4444   -1.3474 C   0  0  0  0  0  0  0  0  0  0  0  0
   -5.7142   -0.7431   -0.3535 C   0  0  0  0  0  0  0  0  0  0  0  0
   -7.1131   -0.8198   -0.2520 C   0  0  0  0  0  0  0  0  0  0  0  0
   -7.8143   -0.1205    0.7444 C   0  0  0  0  0  0  0  0  0  0  0  0
   -9.2132   -0.1986    0.8487 C   0  0  0  0  0  0  0  0  0  0  0  0
   -9.8956    0.5014    1.8449 C   0  0  0  0  0  0  0  0  0  0  0  0
   -9.1889    1.2883    2.7489 C   0  0  0  0  0  0  0  0  0  0  0  0
   -7.7988    1.3762    2.6583 C   0  0  0  0  0  0  0  0  0  0  0  0
   -7.0975    0.6777    1.6615 C   0  0  0  0  0  0  0  0  0  0  0  0
   -5.6986    0.7556    1.5583 C   0  0  0  0  0  0  0  0  0  0  0  0
   -4.9973    0.0539    0.5636 C   0  0  0  0  0  0  0  0  0  0  0  0
   -3.5970    0.1271    0.4640 C   0  0  0  0  0  0  0  0  0  0  0  0
   -0.8124    0.5152   -1.4209 C   0  0  0  0  0  0  0  0  0  0  0  0
   -1.5749    1.4683   -2.1493 C   0  0  0  0  0  0  0  0  0  0  0  0
   -0.9973    2.4703   -2.9449 C   0  0  0  0  0  0  0  0  0  0  0  0
   -1.7795    3.3995   -3.6527 C   0  0  0  0  0  0  0  0  0  0  0  0
   -1.1808    4.3862   -4.4372 C   0  0  0  0  0  0  0  0  0  0  0  0
    0.2058    4.4556   -4.5233 C   0  0  0  0  0  0  0  0  0  0  0  0
    0.9918    3.5385   -3.8244 C   0  0  0  0  0  0  0  0  0  0  0  0
    0.3989    2.5407   -3.0308 C   0  0  0  0  0  0  0  0  0  0  0  0
    1.1660    1.6069   -2.3168 C   0  0  0  0  0  0  0  0  0  0  0  0
    0.5963    0.5867   -1.5070 C   0  0  0  0  0  0  0  0  0  0  0  0
    3.6062    0.4815    0.0479 C   0  0  0  0  0  0  0  0  0  0  0  0
    5.0083    0.5488   -0.0110 C   0  0  0  0  0  0  0  0  0  0  0  0
    5.7429    1.3052    0.9168 C   0  0  0  0  0  0  0  0  0  0  0  0
    7.1451    1.3669    0.8638 C   0  0  0  0  0  0  0  0  0  0  0  0
    7.8810    2.1189    1.7944 C   0  0  0  0  0  0  0  0  0  0  0  0
    9.2743    2.1679    1.7308 C   0  0  0  0  0  0  0  0  0  0  0  0
   11.0347    1.5044    0.6851 H   0  0  0  0  0  0  0  0  0  0  0  0
    9.7786    0.1758   -0.9664 H   0  0  0  0  0  0  0  0  0  0  0  0
    7.6226   -0.6468   -1.8521 H   0  0  0  0  0  0  0  0  0  0  0  0
    5.4672   -1.4734   -2.7306 H   0  0  0  0  0  0  0  0  0  0  0  0
    3.0182   -1.5776   -2.5994 H   0  0  0  0  0  0  0  0  0  0  0  0
    2.6393   -2.2852    0.7023 H   0  0  0  0  0  0  0  0  0  0  0  0
    2.8461   -4.1966    2.2096 H   0  0  0  0  0  0  0  0  0  0  0  0
    1.7804   -5.9304    3.6024 H   0  0  0  0  0  0  0  0  0  0  0  0
   -0.6937   -6.0554    3.7582 H   0  0  0  0  0  0  0  0  0  0  0  0
   -2.0942   -4.4468    2.5206 H   0  0  0  0  0  0  0  0  0  0  0  0
   -2.2713   -2.5320    1.0090 H   0  0  0  0  0  0  0  0  0  0  0  0
   -3.1036   -1.9187   -2.2126 H   0  0  0  0  0  0  0  0  0  0  0  0
   -5.5491   -2.0641   -2.0643 H   0  0  0  0  0  0  0  0  0  0  0  0
   -7.6657   -1.4362   -0.9586 H   0  0  0  0  0  0  0  0  0  0  0  0
   -9.7837   -0.8076    0.1509 H   0  0  0  0  0  0  0  0  0  0  0  0
  -10.9780    0.4317    1.9135 H   0  0  0  0  0  0  0  0  0  0  0  0
   -9.7183    1.8345    3.5253 H   0  0  0  0  0  0  0  0  0  0  0  0
   -7.2644    1.9965    3.3745 H   0  0  0  0  0  0  0  0  0  0  0  0
   -5.1463    1.3713    2.2662 H   0  0  0  0  0  0  0  0  0  0  0  0
   -3.0357    0.7385    1.1694 H   0  0  0  0  0  0  0  0  0  0  0  0
   -2.6629    1.4365   -2.0998 H   0  0  0  0  0  0  0  0  0  0  0  0
   -2.8651    3.3593   -3.5955 H   0  0  0  0  0  0  0  0  0  0  0  0
   -1.7975    5.0984   -4.9788 H   0  0  0  0  0  0  0  0  0  0  0  0
    0.6769    5.2222   -5.1327 H   0  0  0  0  0  0  0  0  0  0  0  0
    2.0749    3.6069   -3.9018 H   0  0  0  0  0  0  0  0  0  0  0  0
    2.2496    1.6847   -2.3994 H   0  0  0  0  0  0  0  0  0  0  0  0
    3.0707    1.0248    0.8253 H   0  0  0  0  0  0  0  0  0  0  0  0
    5.2138    1.8524    1.6951 H   0  0  0  0  0  0  0  0  0  0  0  0
    7.3717    2.6733    2.5796 H   0  0  0  0  0  0  0  0  0  0  0  0
    9.8311    2.7528    2.4583 H   0  0  0  0  0  0  0  0  0  0  0  0
  1  2  4  0
  2  3  4  0
  3  4  4  0
  4  5  4  0
  5  6  4  0
  6  7  4  0
  7  8  4  0
  8  9  1  0
  9 10  4  0
 10 11  4  0
 11 12  4  0
 12 13  4  0
 13 14  4  0
 14 15  4  0
 15 16  4  0
 16 17  4  0
 17 18  4  0
 18 19  4  0
 19 20  4  0
 20 21  1  0
 21 22  4  0
 22 23  4  0
 23 24  4  0
 24 25  4  0
 25 26  4  0
 26 27  4  0
 27 28  4  0
 28 29  4  0
 29 30  4  0
 30 31  4  0
 31 32  4  0
 32 33  4  0
 33 34  4  0
 20 35  4  0
 35 36  4  0
 36 37  4  0
 37 38  4  0
 38 39  4  0
 39 40  4  0
 40 41  4  0
 41 42  4  0
 42 43  4  0
 43 44  4  0
  8 45  4  0
 45 46  4  0
 46 47  4  0
 47 48  4  0
 48 49  4  0
 49 50  4  0
 50  1  4  0
 48  3  4  0
 46  5  4  0
 44  9  4  0
 19 10  4  0
 34 21  4  0
 44 35  4  0
 17 12  4  0
 33 24  4  0
 42 37  4  0
 31 26  4  0
  1 51  1  0
  2 52  1  0
  4 53  1  0
  6 54  1  0
  7 55  1  0
 11 56  1  0
 13 57  1  0
 14 58  1  0
 15 59  1  0
 16 60  1  0
 18 61  1  0
 22 62  1  0
 23 63  1  0
 25 64  1  0
 27 65  1  0
 28 66  1  0
 29 67  1  0
 30 68  1  0
 32 69  1  0
 34 70  1  0
 36 71  1  0
 38 72  1  0
 39 73  1  0
 40 74  1  0
 41 75  1  0
 43 76  1  0
 45 77  1  0
 47 78  1  0
 49 79  1  0
 50 80  1  0
M  END
