
     RDKit          3D

 80 90  0  0  0  0  0  0  0  0999 V2000
    5.6082   -4.3525   -1.2441 C   0  0  0  0  0  0  0  0  0  0  0  0
    4.2242   -4.4927   -1.2640 C   0  0  0  0  0  0  0  0  0  0  0  0
    3.4096   -3.4019   -0.9565 C   0  0  0  0  0  0  0  0  0  0  0  0
    3.9686   -2.1563   -0.6250 C   0  0  0  0  0  0  0  0  0  0  0  0
    3.1621   -1.0473   -0.3145 C   0  0  0  0  0  0  0  0  0  0  0  0
    3.7061    0.2166    0.0160 C   0  0  0  0  0  0  0  0  0  0  0  0
    5.1166    0.3398    0.0325 C   0  0  0  0  0  0  0  0  0  0  0  0
    5.9234   -0.7690   -0.2750 C   0  0  0  0  0  0  0  0  0  0  0  0
    5.3693   -2.0149   -0.6050 C   0  0  0  0  0  0  0  0  0  0  0  0
    6.1783   -3.1213   -0.9165 C   0  0  0  0  0  0  0  0  0  0  0  0
    5.7087    1.5707    0.3538 C   0  0  0  0  0  0  0  0  0  0  0  0
    4.9303    2.6838    0.6561 C   0  0  0  0  0  0  0  0  0  0  0  0
    3.5443    2.5796    0.6405 C   0  0  0  0  0  0  0  0  0  0  0  0
    2.9117    1.3606    0.3254 C   0  0  0  0  0  0  0  0  0  0  0  0
    1.4206    1.3293    0.3239 C   0  0  0  0  0  0  0  0  0  0  0  0
    0.7191    1.0563    1.5393 C   0  0  0  0  0  0  0  0  0  0  0  0
    1.3904    0.7648    2.7577 C   0  0  0  0  0  0  0  0  0  0  0  0
    0.7193    0.5027    3.9626 C   0  0  0  0  0  0  0  0  0  0  0  0
    1.4117    0.2201    5.1533 C   0  0  0  0  0  0  0  0  0  0  0  0
    0.7201   -0.0362    6.3381 C   0  0  0  0  0  0  0  0  0  0  0  0
   -0.6707   -0.0143    6.3463 C   0  0  0  0  0  0  0  0  0  0  0  0
   -1.3679    0.2640    5.1698 C   0  0  0  0  0  0  0  0  0  0  0  0
   -0.6810    0.5246    3.9712 C   0  0  0  0  0  0  0  0  0  0  0  0
   -1.3585    0.8064    2.7747 C   0  0  0  0  0  0  0  0  0  0  0  0
   -0.6939    1.0749    1.5474 C   0  0  0  0  0  0  0  0  0  0  0  0
   -1.4026    1.3598    0.3386 C   0  0  0  0  0  0  0  0  0  0  0  0
   -2.8929    1.4135    0.3558 C   0  0  0  0  0  0  0  0  0  0  0  0
   -3.5070    2.6517    0.6292 C   0  0  0  0  0  0  0  0  0  0  0  0
   -4.8915    2.7712    0.6634 C   0  0  0  0  0  0  0  0  0  0  0  0
   -5.6869    1.6543    0.4251 C   0  0  0  0  0  0  0  0  0  0  0  0
   -5.1132    0.4039    0.1489 C   0  0  0  0  0  0  0  0  0  0  0  0
   -5.9356   -0.7106   -0.0894 C   0  0  0  0  0  0  0  0  0  0  0  0
   -5.3977   -1.9752   -0.3719 C   0  0  0  0  0  0  0  0  0  0  0  0
   -6.2210   -3.0880   -0.6135 C   0  0  0  0  0  0  0  0  0  0  0  0
   -5.6674   -4.3378   -0.8956 C   0  0  0  0  0  0  0  0  0  0  0  0
   -4.2855   -4.4910   -0.9383 C   0  0  0  0  0  0  0  0  0  0  0  0
   -3.4565   -3.3947   -0.6981 C   0  0  0  0  0  0  0  0  0  0  0  0
   -3.9990   -2.1302   -0.4148 C   0  0  0  0  0  0  0  0  0  0  0  0
   -3.1775   -1.0156   -0.1741 C   0  0  0  0  0  0  0  0  0  0  0  0
   -3.7044    0.2664    0.1099 C   0  0  0  0  0  0  0  0  0  0  0  0
   -0.7015    1.6106   -0.8819 C   0  0  0  0  0  0  0  0  0  0  0  0
   -1.3729    1.8762   -2.1063 C   0  0  0  0  0  0  0  0  0  0  0  0
   -0.7013    2.1275   -3.3132 C   0  0  0  0  0  0  0  0  0  0  0  0
   -1.3931    2.3836   -4.5099 C   0  0  0  0  0  0  0  0  0  0  0  0
   -0.7008    2.6330   -5.6960 C   0  0  0  0  0  0  0  0  0  0  0  0
    0.6902    2.6273   -5.7002 C   0  0  0  0  0  0  0  0  0  0  0  0
    1.3868    2.3715   -4.5184 C   0  0  0  0  0  0  0  0  0  0  0  0
    0.6991    2.1204   -3.3182 C   0  0  0  0  0  0  0  0  0  0  0  0
    1.3761    1.8589   -2.1171 C   0  0  0  0  0  0  0  0  0  0  0  0
    0.7115    1.5984   -0.8883 C   0  0  0  0  0  0  0  0  0  0  0  0
    6.2458   -5.1998   -1.4839 H   0  0  0  0  0  0  0  0  0  0  0  0
    3.7758   -5.4493   -1.5190 H   0  0  0  0  0  0  0  0  0  0  0  0
    2.3292   -3.5288   -0.9786 H   0  0  0  0  0  0  0  0  0  0  0  0
    2.0807   -1.1746   -0.3345 H   0  0  0  0  0  0  0  0  0  0  0  0
    7.0065   -0.6606   -0.2593 H   0  0  0  0  0  0  0  0  0  0  0  0
    7.2623   -3.0308   -0.9065 H   0  0  0  0  0  0  0  0  0  0  0  0
    6.7923    1.6730    0.3694 H   0  0  0  0  0  0  0  0  0  0  0  0
    5.4030    3.6311    0.9016 H   0  0  0  0  0  0  0  0  0  0  0  0
    2.9435    3.4569    0.8758 H   0  0  0  0  0  0  0  0  0  0  0  0
    2.4793    0.7353    2.7769 H   0  0  0  0  0  0  0  0  0  0  0  0
    2.4992    0.1964    5.1623 H   0  0  0  0  0  0  0  0  0  0  0  0
    1.2679   -0.2540    7.2511 H   0  0  0  0  0  0  0  0  0  0  0  0
   -1.2144   -0.2150    7.2656 H   0  0  0  0  0  0  0  0  0  0  0  0
   -2.4555    0.2759    5.1925 H   0  0  0  0  0  0  0  0  0  0  0  0
   -2.4474    0.8112    2.8081 H   0  0  0  0  0  0  0  0  0  0  0  0
   -2.8939    3.5317    0.8178 H   0  0  0  0  0  0  0  0  0  0  0  0
   -5.3508    3.7332    0.8757 H   0  0  0  0  0  0  0  0  0  0  0  0
   -6.7688    1.7688    0.4558 H   0  0  0  0  0  0  0  0  0  0  0  0
   -7.0177   -0.5925   -0.0565 H   0  0  0  0  0  0  0  0  0  0  0  0
   -7.3036   -2.9876   -0.5838 H   0  0  0  0  0  0  0  0  0  0  0  0
   -6.3157   -5.1899   -1.0817 H   0  0  0  0  0  0  0  0  0  0  0  0
   -3.8500   -5.4619   -1.1587 H   0  0  0  0  0  0  0  0  0  0  0  0
   -2.3780   -3.5328   -0.7354 H   0  0  0  0  0  0  0  0  0  0  0  0
   -2.0979   -1.1538   -0.2111 H   0  0  0  0  0  0  0  0  0  0  0  0
   -2.4622    1.8854   -2.1306 H   0  0  0  0  0  0  0  0  0  0  0  0
   -2.4810    2.3878   -4.5234 H   0  0  0  0  0  0  0  0  0  0  0  0
   -1.2484    2.8301   -6.6137 H   0  0  0  0  0  0  0  0  0  0  0  0
    1.2344    2.8196   -6.6211 H   0  0  0  0  0  0  0  0  0  0  0  0
    2.4745    2.3676   -4.5380 H   0  0  0  0  0  0  0  0  0  0  0  0
    2.4650    1.8545   -2.1503 H   0  0  0  0  0  0  0  0  0  0  0  0
  1  2  4  0
  2  3  4  0
  3  4  4  0
  4  5  4  0
  5  6  4  0
  6  7  4  0
  7  8  4  0
  8  9  4  0
  9 10  4  0
  7 11  4  0
 11 12  4  0
 12 13  4  0
 13 14  4  0
 14 15  1  0
 15 16  4  0
 16 17  4  0
 17 18  4  0
 18 19  4  0
 19 20  4  0
 20 21  4  0
 21 22  4  0
 22 23  4  0
 23 24  4  0
 24 25  4  0
 25 26  4  0
 26 27  1  0
 27 28  4  0
 28 29  4  0
 29 30  4  0
 30 31  4  0
 31 32  4  0
 32 33  4  0
 33 34  4  0
 34 35  4  0
 35 36  4  0
 36 37  4  0
 37 38  4  0
 38 39  4  0
 39 40  4  0
 26 41  4  0
 41 42  4  0
 42 43  4  0
 43 44  4  0
 44 45  4  0
 45 46  4  0
 46 47  4  0
 47 48  4  0
 48 49  4  0
 49 50  4  0
 10  1  4  0
 50 15  4  0
  9  4  4  0
 25 16  4  0
 40 27  4  0
 50 41  4  0
 14  6  4  0
 23 18  4  0
 40 31  4  0
 48 43  4  0
 38 33  4  0
  1 51  1  0
  2 52  1  0
  3 53  1  0
  5 54  1  0
  8 55  1  0
 10 56  1  0
 11 57  1  0
 12 58  1  0
 13 59  1  0
 17 60  1  0
 19 61  1  0
 20 62  1  0
 21 63  1  0
 22 64  1  0
 24 65  1  0
 28 66  1  0
 29 67  1  0
 30 68  1  0
 32 69  1  0
 34 70  1  0
 35 71  1  0
 36 72  1  0
 37 73  1  0
 39 74  1  0
 42 75  1  0
 44 76  1  0
 45 77  1  0
 46 78  1  0
 47 79  1  0
 49 80  1  0
M  END
