
     RDKit          3D

100114  0  0  0  0  0  0  0  0999 V2000
    5.0786   -0.4996   -7.7387 C   0  0  0  0  0  0  0  0  0  0  0  0
    5.7742   -0.5333   -6.5293 C   0  0  0  0  0  0  0  0  0  0  0  0
    5.0890   -0.4524   -5.3060 C   0  0  0  0  0  0  0  0  0  0  0  0
    5.7673   -0.4849   -4.0780 C   0  0  0  0  0  0  0  0  0  0  0  0
    5.0919   -0.4059   -2.8668 C   0  0  0  0  0  0  0  0  0  0  0  0
    5.7845   -0.4428   -1.7132 N   0  0  0  0  0  0  0  0  0  0  0  0
    5.0868   -0.3618   -0.5652 C   0  0  0  0  0  0  0  0  0  0  0  0
    5.7572   -0.3949    0.6496 C   0  0  0  0  0  0  0  0  0  0  0  0
    5.0807   -0.3129    1.8772 C   0  0  0  0  0  0  0  0  0  0  0  0
    5.7928   -0.3496    3.0859 C   0  0  0  0  0  0  0  0  0  0  0  0
    5.1322   -0.2708    4.3090 C   0  0  0  0  0  0  0  0  0  0  0  0
    3.7472   -0.1537    4.3400 C   0  0  0  0  0  0  0  0  0  0  0  0
    3.0004   -0.1134    3.1474 C   0  0  0  0  0  0  0  0  0  0  0  0
    1.5189    0.0067    3.2410 C   0  0  0  0  0  0  0  0  0  0  0  0
    0.7215   -1.1782    3.3043 C   0  0  0  0  0  0  0  0  0  0  0  0
    1.2909   -2.4810    3.3208 C   0  0  0  0  0  0  0  0  0  0  0  0
    0.5249   -3.6552    3.3853 C   0  0  0  0  0  0  0  0  0  0  0  0
    1.1184   -4.9297    3.4088 C   0  0  0  0  0  0  0  0  0  0  0  0
    0.3333   -6.0814    3.4743 C   0  0  0  0  0  0  0  0  0  0  0  0
   -1.0530   -5.9723    3.5150 C   0  0  0  0  0  0  0  0  0  0  0  0
   -1.6521   -4.7122    3.4910 C   0  0  0  0  0  0  0  0  0  0  0  0
   -0.8706   -3.5454    3.4278 C   0  0  0  0  0  0  0  0  0  0  0  0
   -1.4477   -2.2658    3.4057 C   0  0  0  0  0  0  0  0  0  0  0  0
   -0.6855   -1.0671    3.3468 C   0  0  0  0  0  0  0  0  0  0  0  0
   -1.2905    0.2291    3.3225 C   0  0  0  0  0  0  0  0  0  0  0  0
   -2.7762    0.3426    3.3244 C   0  0  0  0  0  0  0  0  0  0  0  0
   -3.5394    0.3278    2.1189 C   0  0  0  0  0  0  0  0  0  0  0  0
   -2.9667    0.2193    0.8316 C   0  0  0  0  0  0  0  0  0  0  0  0
   -3.7280    0.1954   -0.3299 C   0  0  0  0  0  0  0  0  0  0  0  0
   -3.1154    0.0873   -1.5213 N   0  0  0  0  0  0  0  0  0  0  0  0
   -3.8862    0.0607   -2.6202 C   0  0  0  0  0  0  0  0  0  0  0  0
   -3.2863   -0.0561   -3.8666 C   0  0  0  0  0  0  0  0  0  0  0  0
   -4.0439   -0.0894   -5.0464 C   0  0  0  0  0  0  0  0  0  0  0  0
   -3.4384   -0.2078   -6.3079 C   0  0  0  0  0  0  0  0  0  0  0  0
   -4.2127   -0.2390   -7.4685 C   0  0  0  0  0  0  0  0  0  0  0  0
   -5.5991   -0.1526   -7.3821 C   0  0  0  0  0  0  0  0  0  0  0  0
   -6.2142   -0.0348   -6.1349 C   0  0  0  0  0  0  0  0  0  0  0  0
   -5.4479   -0.0021   -4.9586 C   0  0  0  0  0  0  0  0  0  0  0  0
   -6.0452    0.1149   -3.6940 C   0  0  0  0  0  0  0  0  0  0  0  0
   -5.2902    0.1471   -2.5289 C   0  0  0  0  0  0  0  0  0  0  0  0
   -5.9056    0.2580   -1.3363 N   0  0  0  0  0  0  0  0  0  0  0  0
   -5.1285    0.2829   -0.2363 C   0  0  0  0  0  0  0  0  0  0  0  0
   -5.7110    0.3966    1.0185 C   0  0  0  0  0  0  0  0  0  0  0  0
   -4.9467    0.4212    2.1967 C   0  0  0  0  0  0  0  0  0  0  0  0
   -5.5716    0.5343    3.4479 C   0  0  0  0  0  0  0  0  0  0  0  0
   -4.8236    0.5527    4.6222 C   0  0  0  0  0  0  0  0  0  0  0  0
   -3.4377    0.4559    4.5614 C   0  0  0  0  0  0  0  0  0  0  0  0
   -0.4915    1.4148    3.2870 C   0  0  0  0  0  0  0  0  0  0  0  0
   -1.0579    2.7186    3.2810 C   0  0  0  0  0  0  0  0  0  0  0  0
   -0.2874    3.8922    3.2514 C   0  0  0  0  0  0  0  0  0  0  0  0
   -0.8774    5.1681    3.2505 C   0  0  0  0  0  0  0  0  0  0  0  0
   -0.0896    6.3200    3.2267 C   0  0  0  0  0  0  0  0  0  0  0  0
    1.2969    6.2108    3.2043 C   0  0  0  0  0  0  0  0  0  0  0  0
    1.8937    4.9492    3.2015 C   0  0  0  0  0  0  0  0  0  0  0  0
    1.1087    3.7819    3.2228 C   0  0  0  0  0  0  0  0  0  0  0  0
    1.6820    2.5006    3.2160 C   0  0  0  0  0  0  0  0  0  0  0  0
    0.9161    1.3032    3.2497 C   0  0  0  0  0  0  0  0  0  0  0  0
    3.6737   -0.1939    1.8918 C   0  0  0  0  0  0  0  0  0  0  0  0
    3.0108   -0.1629    0.6430 C   0  0  0  0  0  0  0  0  0  0  0  0
    3.6854   -0.2432   -0.5687 C   0  0  0  0  0  0  0  0  0  0  0  0
    2.9934   -0.2069   -1.7212 N   0  0  0  0  0  0  0  0  0  0  0  0
    3.6873   -0.2882   -2.8699 C   0  0  0  0  0  0  0  0  0  0  0  0
    3.0085   -0.2561   -4.0810 C   0  0  0  0  0  0  0  0  0  0  0  0
    3.6847   -0.3362   -5.3075 C   0  0  0  0  0  0  0  0  0  0  0  0
    2.9975   -0.3036   -6.5318 C   0  0  0  0  0  0  0  0  0  0  0  0
    3.6915   -0.3848   -7.7399 C   0  0  0  0  0  0  0  0  0  0  0  0
    5.6204   -0.5631   -8.6790 H   0  0  0  0  0  0  0  0  0  0  0  0
    6.8584   -0.6236   -6.5485 H   0  0  0  0  0  0  0  0  0  0  0  0
    6.8512   -0.5750   -4.0548 H   0  0  0  0  0  0  0  0  0  0  0  0
    6.8416   -0.4871    0.6282 H   0  0  0  0  0  0  0  0  0  0  0  0
    6.8775   -0.4415    3.0838 H   0  0  0  0  0  0  0  0  0  0  0  0
    5.6963   -0.3027    5.2376 H   0  0  0  0  0  0  0  0  0  0  0  0
    3.2389   -0.0954    5.3012 H   0  0  0  0  0  0  0  0  0  0  0  0
    2.3734   -2.5953    3.2823 H   0  0  0  0  0  0  0  0  0  0  0  0
    2.2011   -5.0327    3.3767 H   0  0  0  0  0  0  0  0  0  0  0  0
    0.8042   -7.0607    3.4920 H   0  0  0  0  0  0  0  0  0  0  0  0
   -1.6683   -6.8665    3.5655 H   0  0  0  0  0  0  0  0  0  0  0  0
   -2.7373   -4.6447    3.5216 H   0  0  0  0  0  0  0  0  0  0  0  0
   -2.5352   -2.2103    3.4367 H   0  0  0  0  0  0  0  0  0  0  0  0
   -1.8865    0.1474    0.7152 H   0  0  0  0  0  0  0  0  0  0  0  0
   -2.2001   -0.1244   -3.9075 H   0  0  0  0  0  0  0  0  0  0  0  0
   -2.3560   -0.2768   -6.3960 H   0  0  0  0  0  0  0  0  0  0  0  0
   -3.7324   -0.3309   -8.4393 H   0  0  0  0  0  0  0  0  0  0  0  0
   -6.2033   -0.1769   -8.2854 H   0  0  0  0  0  0  0  0  0  0  0  0
   -7.2993    0.0312   -6.0881 H   0  0  0  0  0  0  0  0  0  0  0  0
   -7.1273    0.1826   -3.6053 H   0  0  0  0  0  0  0  0  0  0  0  0
   -6.7961    0.4642    1.0696 H   0  0  0  0  0  0  0  0  0  0  0  0
   -6.6556    0.6081    3.5182 H   0  0  0  0  0  0  0  0  0  0  0  0
   -5.3214    0.6397    5.5846 H   0  0  0  0  0  0  0  0  0  0  0  0
   -2.8614    0.4665    5.4852 H   0  0  0  0  0  0  0  0  0  0  0  0
   -2.1410    2.8344    3.3019 H   0  0  0  0  0  0  0  0  0  0  0  0
   -1.9601    5.2722    3.2683 H   0  0  0  0  0  0  0  0  0  0  0  0
   -0.5606    7.2993    3.2243 H   0  0  0  0  0  0  0  0  0  0  0  0
    1.9150    7.1049    3.1876 H   0  0  0  0  0  0  0  0  0  0  0  0
    2.9794    4.8818    3.1818 H   0  0  0  0  0  0  0  0  0  0  0  0
    2.7694    2.4424    3.1841 H   0  0  0  0  0  0  0  0  0  0  0  0
    1.9266   -0.0726    0.5988 H   0  0  0  0  0  0  0  0  0  0  0  0
    1.9237   -0.1673   -4.0570 H   0  0  0  0  0  0  0  0  0  0  0  0
    1.9132   -0.2142   -6.5532 H   0  0  0  0  0  0  0  0  0  0  0  0
    3.1483   -0.3585   -8.6812 H   0  0  0  0  0  0  0  0  0  0  0  0
  1  2  4  0
  2  3  4  0
  3  4  4  0
  4  5  4  0
  5  6  4  0
  6  7  4  0
  7  8  4  0
  8  9  4  0
  9 10  4  0
 10 11  4  0
 11 12  4  0
 12 13  4  0
 13 14  1  0
 14 15  4  0
 15 16  4  0
 16 17  4  0
 17 18  4  0
 18 19  4  0
 19 20  4  0
 20 21  4  0
 21 22  4  0
 22 23  4  0
 23 24  4  0
 24 25  4  0
 25 26  1  0
 26 27  4  0
 27 28  4  0
 28 29  4  0
 29 30  4  0
 30 31  4  0
 31 32  4  0
 32 33  4  0
 33 34  4  0
 34 35  4  0
 35 36  4  0
 36 37  4  0
 37 38  4  0
 38 39  4  0
 39 40  4  0
 40 41  4  0
 41 42  4  0
 42 43  4  0
 43 44  4  0
 44 45  4  0
 45 46  4  0
 46 47  4  0
 25 48  4  0
 48 49  4  0
 49 50  4  0
 50 51  4  0
 51 52  4  0
 52 53  4  0
 53 54  4  0
 54 55  4  0
 55 56  4  0
 56 57  4  0
 13 58  4  0
 58 59  4  0
 59 60  4  0
 60 61  4  0
 61 62  4  0
 62 63  4  0
 63 64  4  0
 64 65  4  0
 65 66  4  0
 66  1  4  0
 64  3  4  0
 62  5  4  0
 60  7  4  0
 58  9  4  0
 57 14  4  0
 24 15  4  0
 47 26  4  0
 57 48  4  0
 22 17  4  0
 44 27  4  0
 55 50  4  0
 42 29  4  0
 40 31  4  0
 38 33  4  0
  1 67  1  0
  2 68  1  0
  4 69  1  0
  8 70  1  0
 10 71  1  0
 11 72  1  0
 12 73  1  0
 16 74  1  0
 18 75  1  0
 19 76  1  0
 20 77  1  0
 21 78  1  0
 23 79  1  0
 28 80  1  0
 32 81  1  0
 34 82  1  0
 35 83  1  0
 36 84  1  0
 37 85  1  0
 39 86  1  0
 43 87  1  0
 45 88  1  0
 46 89  1  0
 47 90  1  0
 49 91  1  0
 51 92  1  0
 52 93  1  0
 53 94  1  0
 54 95  1  0
 56 96  1  0
 59 97  1  0
 63 98  1  0
 65 99  1  0
 66100  1  0
M  END
