
     RDKit          3D

100114  0  0  0  0  0  0  0  0999 V2000
  -13.8922   -2.2362    2.9376 C   0  0  0  0  0  0  0  0  0  0  0  0
  -13.2386   -1.3791    2.0511 C   0  0  0  0  0  0  0  0  0  0  0  0
  -11.8360   -1.3500    1.9857 C   0  0  0  0  0  0  0  0  0  0  0  0
  -11.1571   -0.4970    1.1025 C   0  0  0  0  0  0  0  0  0  0  0  0
   -9.7701   -0.4664    1.0361 C   0  0  0  0  0  0  0  0  0  0  0  0
   -9.1652    0.3687    0.1714 N   0  0  0  0  0  0  0  0  0  0  0  0
   -7.8201    0.3646    0.1403 C   0  0  0  0  0  0  0  0  0  0  0  0
   -7.1531    1.2058   -0.7407 C   0  0  0  0  0  0  0  0  0  0  0  0
   -5.7525    1.2356   -0.8172 C   0  0  0  0  0  0  0  0  0  0  0  0
   -5.0829    2.0793   -1.7161 C   0  0  0  0  0  0  0  0  0  0  0  0
   -3.6879    2.0840   -1.7840 C   0  0  0  0  0  0  0  0  0  0  0  0
   -2.9300    1.2507   -0.9504 C   0  0  0  0  0  0  0  0  0  0  0  0
   -1.4497    1.2427   -1.0336 C   0  0  0  0  0  0  0  0  0  0  0  0
   -0.7996    0.2966   -1.8862 C   0  0  0  0  0  0  0  0  0  0  0  0
   -1.5173   -0.6545   -2.6617 C   0  0  0  0  0  0  0  0  0  0  0  0
   -0.8946   -1.5934   -3.4995 C   0  0  0  0  0  0  0  0  0  0  0  0
   -1.6318   -2.5280   -4.2463 C   0  0  0  0  0  0  0  0  0  0  0  0
   -0.9868   -3.4493   -5.0729 C   0  0  0  0  0  0  0  0  0  0  0  0
    0.4012   -3.4472   -5.1632 C   0  0  0  0  0  0  0  0  0  0  0  0
    1.1428   -2.5248   -4.4250 C   0  0  0  0  0  0  0  0  0  0  0  0
    0.5026   -1.5937   -3.5884 C   0  0  0  0  0  0  0  0  0  0  0  0
    1.2244   -0.6587   -2.8321 C   0  0  0  0  0  0  0  0  0  0  0  0
    0.6098    0.2912   -1.9716 C   0  0  0  0  0  0  0  0  0  0  0  0
    1.3660    1.2257   -1.1993 C   0  0  0  0  0  0  0  0  0  0  0  0
    2.8453    1.2009   -1.2736 C   0  0  0  0  0  0  0  0  0  0  0  0
    3.5349    2.0279   -2.1702 C   0  0  0  0  0  0  0  0  0  0  0  0
    4.9288    1.9904   -2.2410 C   0  0  0  0  0  0  0  0  0  0  0  0
    5.6623    1.1198   -1.4211 C   0  0  0  0  0  0  0  0  0  0  0  0
    7.0616    1.0592   -1.4794 C   0  0  0  0  0  0  0  0  0  0  0  0
    7.7887    0.1935   -0.6733 C   0  0  0  0  0  0  0  0  0  0  0  0
    9.1299    0.1731   -0.7672 N   0  0  0  0  0  0  0  0  0  0  0  0
    9.7969   -0.6818    0.0300 C   0  0  0  0  0  0  0  0  0  0  0  0
   11.1830   -0.7372   -0.0335 C   0  0  0  0  0  0  0  0  0  0  0  0
   11.9259   -1.6105    0.7754 C   0  0  0  0  0  0  0  0  0  0  0  0
   13.3278   -1.6643    0.7089 C   0  0  0  0  0  0  0  0  0  0  0  0
   14.0461   -2.5410    1.5232 C   0  0  0  0  0  0  0  0  0  0  0  0
   13.3724   -3.3733    2.4123 C   0  0  0  0  0  0  0  0  0  0  0  0
   11.9795   -3.3303    2.4888 C   0  0  0  0  0  0  0  0  0  0  0  0
   11.2440   -2.4528    1.6754 C   0  0  0  0  0  0  0  0  0  0  0  0
    9.8435   -2.3915    1.7347 C   0  0  0  0  0  0  0  0  0  0  0  0
    9.1143   -1.5245    0.9312 C   0  0  0  0  0  0  0  0  0  0  0  0
    7.7721   -1.5028    1.0258 N   0  0  0  0  0  0  0  0  0  0  0  0
    7.1063   -0.6483    0.2286 C   0  0  0  0  0  0  0  0  0  0  0  0
    5.7213   -0.5908    0.2935 C   0  0  0  0  0  0  0  0  0  0  0  0
    4.9818    0.2819   -0.5172 C   0  0  0  0  0  0  0  0  0  0  0  0
    3.5815    0.3346   -0.4490 C   0  0  0  0  0  0  0  0  0  0  0  0
    0.7182    2.1687   -0.3441 C   0  0  0  0  0  0  0  0  0  0  0  0
    1.4419    3.1070    0.4412 C   0  0  0  0  0  0  0  0  0  0  0  0
    0.8228    4.0395    1.2875 C   0  0  0  0  0  0  0  0  0  0  0  0
    1.5659    4.9563    2.0509 C   0  0  0  0  0  0  0  0  0  0  0  0
    0.9262    5.8741    2.8851 C   0  0  0  0  0  0  0  0  0  0  0  0
   -0.4625    5.8859    2.9658 C   0  0  0  0  0  0  0  0  0  0  0  0
   -1.2094    4.9791    2.2126 C   0  0  0  0  0  0  0  0  0  0  0  0
   -0.5753    4.0503    1.3690 C   0  0  0  0  0  0  0  0  0  0  0  0
   -1.3030    3.1269    0.6018 C   0  0  0  0  0  0  0  0  0  0  0  0
   -0.6923    2.1778   -0.2616 C   0  0  0  0  0  0  0  0  0  0  0  0
   -3.6014    0.4132   -0.0441 C   0  0  0  0  0  0  0  0  0  0  0  0
   -5.0048    0.3933    0.0277 C   0  0  0  0  0  0  0  0  0  0  0  0
   -5.6847   -0.4517    0.9177 C   0  0  0  0  0  0  0  0  0  0  0  0
   -7.0716   -0.4818    0.9835 C   0  0  0  0  0  0  0  0  0  0  0  0
   -7.6759   -1.3175    1.8467 N   0  0  0  0  0  0  0  0  0  0  0  0
   -9.0211   -1.3144    1.8777 C   0  0  0  0  0  0  0  0  0  0  0  0
   -9.6868   -2.1613    2.7539 C   0  0  0  0  0  0  0  0  0  0  0  0
  -11.0875   -2.1972    2.8263 C   0  0  0  0  0  0  0  0  0  0  0  0
  -11.7583   -3.0547    3.7135 C   0  0  0  0  0  0  0  0  0  0  0  0
  -13.1526   -3.0732    3.7680 C   0  0  0  0  0  0  0  0  0  0  0  0
  -14.9784   -2.2496    2.9791 H   0  0  0  0  0  0  0  0  0  0  0  0
  -13.8336   -0.7322    1.4098 H   0  0  0  0  0  0  0  0  0  0  0  0
  -11.7169    0.1645    0.4448 H   0  0  0  0  0  0  0  0  0  0  0  0
   -7.7492    1.8486   -1.3850 H   0  0  0  0  0  0  0  0  0  0  0  0
   -5.6426    2.7385   -2.3765 H   0  0  0  0  0  0  0  0  0  0  0  0
   -3.1902    2.7414   -2.4948 H   0  0  0  0  0  0  0  0  0  0  0  0
   -2.6056   -0.6738   -2.6161 H   0  0  0  0  0  0  0  0  0  0  0  0
   -2.7180   -2.5439   -4.1866 H   0  0  0  0  0  0  0  0  0  0  0  0
   -1.5683   -4.1672   -5.6453 H   0  0  0  0  0  0  0  0  0  0  0  0
    0.9071   -4.1625   -5.8062 H   0  0  0  0  0  0  0  0  0  0  0  0
    2.2277   -2.5372   -4.5047 H   0  0  0  0  0  0  0  0  0  0  0  0
    2.3098   -0.6797   -2.9222 H   0  0  0  0  0  0  0  0  0  0  0  0
    2.9858    2.7068   -2.8201 H   0  0  0  0  0  0  0  0  0  0  0  0
    5.4364    2.6462   -2.9455 H   0  0  0  0  0  0  0  0  0  0  0  0
    7.6089    1.6982   -2.1691 H   0  0  0  0  0  0  0  0  0  0  0  0
   11.6907   -0.0785   -0.7349 H   0  0  0  0  0  0  0  0  0  0  0  0
   13.8714   -1.0212    0.0199 H   0  0  0  0  0  0  0  0  0  0  0  0
   15.1310   -2.5734    1.4626 H   0  0  0  0  0  0  0  0  0  0  0  0
   13.9303   -4.0570    3.0472 H   0  0  0  0  0  0  0  0  0  0  0  0
   11.4713   -3.9893    3.1900 H   0  0  0  0  0  0  0  0  0  0  0  0
    9.2978   -3.0334    2.4231 H   0  0  0  0  0  0  0  0  0  0  0  0
    5.2128   -1.2483    0.9957 H   0  0  0  0  0  0  0  0  0  0  0  0
    3.0478   -0.3105    0.2483 H   0  0  0  0  0  0  0  0  0  0  0  0
    2.5306    3.1184    0.3992 H   0  0  0  0  0  0  0  0  0  0  0  0
    2.6524    4.9598    1.9998 H   0  0  0  0  0  0  0  0  0  0  0  0
    1.5134    6.5767    3.4702 H   0  0  0  0  0  0  0  0  0  0  0  0
   -0.9660    6.5988    3.6134 H   0  0  0  0  0  0  0  0  0  0  0  0
   -2.2944    5.0009    2.2876 H   0  0  0  0  0  0  0  0  0  0  0  0
   -2.3886    3.1541    0.6877 H   0  0  0  0  0  0  0  0  0  0  0  0
   -3.0156   -0.2369    0.6052 H   0  0  0  0  0  0  0  0  0  0  0  0
   -5.1267   -1.1123    1.5783 H   0  0  0  0  0  0  0  0  0  0  0  0
   -9.0904   -2.8077    3.3943 H   0  0  0  0  0  0  0  0  0  0  0  0
  -11.1973   -3.7162    4.3704 H   0  0  0  0  0  0  0  0  0  0  0  0
  -13.6604   -3.7413    4.4591 H   0  0  0  0  0  0  0  0  0  0  0  0
  1  2  4  0
  2  3  4  0
  3  4  4  0
  4  5  4  0
  5  6  4  0
  6  7  4  0
  7  8  4  0
  8  9  4  0
  9 10  4  0
 10 11  4  0
 11 12  4  0
 12 13  1  0
 13 14  4  0
 14 15  4  0
 15 16  4  0
 16 17  4  0
 17 18  4  0
 18 19  4  0
 19 20  4  0
 20 21  4  0
 21 22  4  0
 22 23  4  0
 23 24  4  0
 24 25  1  0
 25 26  4  0
 26 27  4  0
 27 28  4  0
 28 29  4  0
 29 30  4  0
 30 31  4  0
 31 32  4  0
 32 33  4  0
 33 34  4  0
 34 35  4  0
 35 36  4  0
 36 37  4  0
 37 38  4  0
 38 39  4  0
 39 40  4  0
 40 41  4  0
 41 42  4  0
 42 43  4  0
 43 44  4  0
 44 45  4  0
 45 46  4  0
 24 47  4  0
 47 48  4  0
 48 49  4  0
 49 50  4  0
 50 51  4  0
 51 52  4  0
 52 53  4  0
 53 54  4  0
 54 55  4  0
 55 56  4  0
 12 57  4  0
 57 58  4  0
 58 59  4  0
 59 60  4  0
 60 61  4  0
 61 62  4  0
 62 63  4  0
 63 64  4  0
 64 65  4  0
 65 66  4  0
 66  1  4  0
 64  3  4  0
 62  5  4  0
 60  7  4  0
 58  9  4  0
 56 13  4  0
 23 14  4  0
 46 25  4  0
 56 47  4  0
 21 16  4  0
 45 28  4  0
 54 49  4  0
 43 30  4  0
 41 32  4  0
 39 34  4  0
  1 67  1  0
  2 68  1  0
  4 69  1  0
  8 70  1  0
 10 71  1  0
 11 72  1  0
 15 73  1  0
 17 74  1  0
 18 75  1  0
 19 76  1  0
 20 77  1  0
 22 78  1  0
 26 79  1  0
 27 80  1  0
 29 81  1  0
 33 82  1  0
 35 83  1  0
 36 84  1  0
 37 85  1  0
 38 86  1  0
 40 87  1  0
 44 88  1  0
 46 89  1  0
 48 90  1  0
 50 91  1  0
 51 92  1  0
 52 93  1  0
 53 94  1  0
 55 95  1  0
 57 96  1  0
 59 97  1  0
 63 98  1  0
 65 99  1  0
 66100  1  0
M  END
