
     RDKit          3D

102114  0  0  0  0  0  0  0  0999 V2000
   10.2596    1.0089   -1.6064 C   0  0  0  0  0  0  0  0  0  0  0  0
    9.8002    0.3004   -0.4720 C   0  0  0  0  0  0  0  0  0  0  0  0
    8.4320    0.4904   -0.2909 C   0  0  0  0  0  0  0  0  0  0  0  0
    7.6253   -0.0371    0.6924 C   0  0  0  0  0  0  0  0  0  0  0  0
    7.7776   -0.9468    1.8215 C   0  0  0  0  0  0  0  0  0  0  0  0
    7.0548   -0.7325    3.0055 C   0  0  0  0  0  0  0  0  0  0  0  0
    7.1870   -1.5989    4.0933 C   0  0  0  0  0  0  0  0  0  0  0  0
    8.0414   -2.6951    4.0092 C   0  0  0  0  0  0  0  0  0  0  0  0
    8.7587   -2.9275    2.8376 C   0  0  0  0  0  0  0  0  0  0  0  0
    8.6258   -2.0597    1.7496 C   0  0  0  0  0  0  0  0  0  0  0  0
    6.3482    0.4397    0.5079 O   0  0  0  0  0  0  0  0  0  0  0  0
    6.3321    1.2623   -0.5941 C   0  0  0  0  0  0  0  0  0  0  0  0
    5.0368    1.8632   -0.8799 C   0  0  0  0  0  0  0  0  0  0  0  0
    4.9288    3.2024   -1.2742 C   0  0  0  0  0  0  0  0  0  0  0  0
    3.6775    3.7788   -1.5026 C   0  0  0  0  0  0  0  0  0  0  0  0
    2.5185    3.0231   -1.3293 C   0  0  0  0  0  0  0  0  0  0  0  0
    2.5955    1.6781   -0.9371 C   0  0  0  0  0  0  0  0  0  0  0  0
    1.3636    0.8772   -0.7351 C   0  0  0  0  0  0  0  0  0  0  0  0
    0.8494    0.6987    0.5875 C   0  0  0  0  0  0  0  0  0  0  0  0
    1.4876    1.2443    1.7348 C   0  0  0  0  0  0  0  0  0  0  0  0
    1.0046    1.0705    3.0405 C   0  0  0  0  0  0  0  0  0  0  0  0
    1.6684    1.6125    4.1543 C   0  0  0  0  0  0  0  0  0  0  0  0
    1.1687    1.4251    5.4433 C   0  0  0  0  0  0  0  0  0  0  0  0
    0.0009    0.6937    5.6331 C   0  0  0  0  0  0  0  0  0  0  0  0
   -0.6652    0.1504    4.5339 C   0  0  0  0  0  0  0  0  0  0  0  0
   -0.1702    0.3331    3.2310 C   0  0  0  0  0  0  0  0  0  0  0  0
   -0.8181   -0.2043    2.1079 C   0  0  0  0  0  0  0  0  0  0  0  0
   -0.3371   -0.0437    0.7795 C   0  0  0  0  0  0  0  0  0  0  0  0
   -1.0095   -0.6007   -0.3518 C   0  0  0  0  0  0  0  0  0  0  0  0
   -2.2687   -1.3576   -0.1540 C   0  0  0  0  0  0  0  0  0  0  0  0
   -2.2477   -2.7436    0.0591 C   0  0  0  0  0  0  0  0  0  0  0  0
   -3.4358   -3.4471    0.2484 C   0  0  0  0  0  0  0  0  0  0  0  0
   -4.6579   -2.7728    0.2191 C   0  0  0  0  0  0  0  0  0  0  0  0
   -4.7117   -1.3894   -0.0026 C   0  0  0  0  0  0  0  0  0  0  0  0
   -5.9940   -0.6969   -0.0419 C   0  0  0  0  0  0  0  0  0  0  0  0
   -6.5449    0.3504   -0.7456 C   0  0  0  0  0  0  0  0  0  0  0  0
   -5.9595    1.1040   -1.7610 C   0  0  0  0  0  0  0  0  0  0  0  0
   -6.8483    2.1022   -2.2220 C   0  0  0  0  0  0  0  0  0  0  0  0
   -8.1754    2.3042   -1.7065 C   0  0  0  0  0  0  0  0  0  0  0  0
   -8.7581    1.5227   -0.6826 C   0  0  0  0  0  0  0  0  0  0  0  0
   -7.8736    0.5382   -0.2476 C   0  0  0  0  0  0  0  0  0  0  0  0
   -8.0811   -0.4172    0.7213 C   0  0  0  0  0  0  0  0  0  0  0  0
   -9.1769   -0.8216    1.5932 C   0  0  0  0  0  0  0  0  0  0  0  0
  -10.5027   -0.8244    1.1389 C   0  0  0  0  0  0  0  0  0  0  0  0
  -11.5463   -1.2134    1.9838 C   0  0  0  0  0  0  0  0  0  0  0  0
  -11.2758   -1.6080    3.2923 C   0  0  0  0  0  0  0  0  0  0  0  0
   -9.9623   -1.6194    3.7556 C   0  0  0  0  0  0  0  0  0  0  0  0
   -8.9202   -1.2312    2.9101 C   0  0  0  0  0  0  0  0  0  0  0  0
   -6.9326   -1.1652    0.8491 O   0  0  0  0  0  0  0  0  0  0  0  0
   -3.5082   -0.6930   -0.1767 C   0  0  0  0  0  0  0  0  0  0  0  0
   -0.4900   -0.4321   -1.6729 C   0  0  0  0  0  0  0  0  0  0  0  0
   -1.1290   -0.9784   -2.8196 C   0  0  0  0  0  0  0  0  0  0  0  0
   -0.6294   -0.8300   -4.1230 C   0  0  0  0  0  0  0  0  0  0  0  0
   -1.2840   -1.3823   -5.2378 C   0  0  0  0  0  0  0  0  0  0  0  0
   -0.7638   -1.2227   -6.5229 C   0  0  0  0  0  0  0  0  0  0  0  0
    0.4164   -0.5103   -6.7085 C   0  0  0  0  0  0  0  0  0  0  0  0
    1.0746    0.0413   -5.6089 C   0  0  0  0  0  0  0  0  0  0  0  0
    0.5585   -0.1124   -4.3104 C   0  0  0  0  0  0  0  0  0  0  0  0
    1.2004    0.4338   -3.1883 C   0  0  0  0  0  0  0  0  0  0  0  0
    0.7023    0.3013   -1.8636 C   0  0  0  0  0  0  0  0  0  0  0  0
    3.8628    1.1105   -0.7225 C   0  0  0  0  0  0  0  0  0  0  0  0
    7.6016    1.3095   -1.1216 C   0  0  0  0  0  0  0  0  0  0  0  0
    8.0347    2.0058   -2.2475 C   0  0  0  0  0  0  0  0  0  0  0  0
    9.4204    1.8145   -2.4525 C   0  0  0  0  0  0  0  0  0  0  0  0
   11.3190    0.9420   -1.8593 H   0  0  0  0  0  0  0  0  0  0  0  0
   10.4509   -0.2912    0.1557 H   0  0  0  0  0  0  0  0  0  0  0  0
    6.3805    0.1179    3.0874 H   0  0  0  0  0  0  0  0  0  0  0  0
    6.6197   -1.4174    5.0023 H   0  0  0  0  0  0  0  0  0  0  0  0
    8.1433   -3.3717    4.8537 H   0  0  0  0  0  0  0  0  0  0  0  0
    9.4175   -3.7893    2.7666 H   0  0  0  0  0  0  0  0  0  0  0  0
    9.1758   -2.2783    0.8380 H   0  0  0  0  0  0  0  0  0  0  0  0
    5.8171    3.8203   -1.3797 H   0  0  0  0  0  0  0  0  0  0  0  0
    3.6043    4.8211   -1.8019 H   0  0  0  0  0  0  0  0  0  0  0  0
    1.5474    3.4861   -1.4960 H   0  0  0  0  0  0  0  0  0  0  0  0
    2.4013    1.8254    1.6169 H   0  0  0  0  0  0  0  0  0  0  0  0
    2.5854    2.1829    4.0220 H   0  0  0  0  0  0  0  0  0  0  0  0
    1.6923    1.8485    6.2959 H   0  0  0  0  0  0  0  0  0  0  0  0
   -0.3914    0.5440    6.6352 H   0  0  0  0  0  0  0  0  0  0  0  0
   -1.5759   -0.4206    4.6999 H   0  0  0  0  0  0  0  0  0  0  0  0
   -1.7316   -0.7715    2.2837 H   0  0  0  0  0  0  0  0  0  0  0  0
   -1.2997   -3.2777    0.0824 H   0  0  0  0  0  0  0  0  0  0  0  0
   -3.4123   -4.5205    0.4181 H   0  0  0  0  0  0  0  0  0  0  0  0
   -5.5771   -3.3372    0.3660 H   0  0  0  0  0  0  0  0  0  0  0  0
   -4.9678    0.9672   -2.1678 H   0  0  0  0  0  0  0  0  0  0  0  0
   -6.5075    2.7651   -3.0189 H   0  0  0  0  0  0  0  0  0  0  0  0
   -8.7675    3.1134   -2.1362 H   0  0  0  0  0  0  0  0  0  0  0  0
   -9.7548    1.6969   -0.3034 H   0  0  0  0  0  0  0  0  0  0  0  0
  -10.7374   -0.5436    0.1153 H   0  0  0  0  0  0  0  0  0  0  0  0
  -12.5693   -1.2145    1.6166 H   0  0  0  0  0  0  0  0  0  0  0  0
  -12.0870   -1.9121    3.9486 H   0  0  0  0  0  0  0  0  0  0  0  0
   -9.7453   -1.9316    4.7738 H   0  0  0  0  0  0  0  0  0  0  0  0
   -7.8996   -1.2457    3.2872 H   0  0  0  0  0  0  0  0  0  0  0  0
   -3.5197    0.3865   -0.3152 H   0  0  0  0  0  0  0  0  0  0  0  0
   -2.0509   -1.5468   -2.7010 H   0  0  0  0  0  0  0  0  0  0  0  0
   -2.2068   -1.9437   -5.1097 H   0  0  0  0  0  0  0  0  0  0  0  0
   -1.2791   -1.6556   -7.3760 H   0  0  0  0  0  0  0  0  0  0  0  0
    0.8266   -0.3838   -7.7068 H   0  0  0  0  0  0  0  0  0  0  0  0
    1.9973    0.5942   -5.7710 H   0  0  0  0  0  0  0  0  0  0  0  0
    2.1272    0.9793   -3.3605 H   0  0  0  0  0  0  0  0  0  0  0  0
    3.9319    0.0680   -0.4114 H   0  0  0  0  0  0  0  0  0  0  0  0
    7.4186    2.6093   -2.8980 H   0  0  0  0  0  0  0  0  0  0  0  0
    9.8875    2.3093   -3.3054 H   0  0  0  0  0  0  0  0  0  0  0  0
  1  2  4  0
  2  3  4  0
  3  4  4  0
  4  5  1  0
  5  6  4  0
  6  7  4  0
  7  8  4  0
  8  9  4  0
  9 10  4  0
  4 11  4  0
 11 12  4  0
 12 13  1  0
 13 14  4  0
 14 15  4  0
 15 16  4  0
 16 17  4  0
 17 18  1  0
 18 19  4  0
 19 20  4  0
 20 21  4  0
 21 22  4  0
 22 23  4  0
 23 24  4  0
 24 25  4  0
 25 26  4  0
 26 27  4  0
 27 28  4  0
 28 29  4  0
 29 30  1  0
 30 31  4  0
 31 32  4  0
 32 33  4  0
 33 34  4  0
 34 35  1  0
 35 36  4  0
 36 37  4  0
 37 38  4  0
 38 39  4  0
 39 40  4  0
 40 41  4  0
 41 42  4  0
 42 43  1  0
 43 44  4  0
 44 45  4  0
 45 46  4  0
 46 47  4  0
 47 48  4  0
 42 49  4  0
 34 50  4  0
 29 51  4  0
 51 52  4  0
 52 53  4  0
 53 54  4  0
 54 55  4  0
 55 56  4  0
 56 57  4  0
 57 58  4  0
 58 59  4  0
 59 60  4  0
 17 61  4  0
 12 62  4  0
 62 63  4  0
 63 64  4  0
 64  1  4  0
 62  3  4  0
 10  5  4  0
 61 13  4  0
 60 18  4  0
 28 19  4  0
 50 30  4  0
 60 51  4  0
 26 21  4  0
 49 35  4  0
 58 53  4  0
 41 36  4  0
 48 43  4  0
  1 65  1  0
  2 66  1  0
  6 67  1  0
  7 68  1  0
  8 69  1  0
  9 70  1  0
 10 71  1  0
 14 72  1  0
 15 73  1  0
 16 74  1  0
 20 75  1  0
 22 76  1  0
 23 77  1  0
 24 78  1  0
 25 79  1  0
 27 80  1  0
 31 81  1  0
 32 82  1  0
 33 83  1  0
 37 84  1  0
 38 85  1  0
 39 86  1  0
 40 87  1  0
 44 88  1  0
 45 89  1  0
 46 90  1  0
 47 91  1  0
 48 92  1  0
 50 93  1  0
 52 94  1  0
 54 95  1  0
 55 96  1  0
 56 97  1  0
 57 98  1  0
 59 99  1  0
 61100  1  0
 63101  1  0
 64102  1  0
M  END
