
     RDKit          3D

102114  0  0  0  0  0  0  0  0999 V2000
    4.7760    1.5779    2.1521 C   0  0  0  0  0  0  0  0  0  0  0  0
    3.3895    1.4193    1.9171 C   0  0  0  0  0  0  0  0  0  0  0  0
    2.8136    0.5913    0.8748 C   0  0  0  0  0  0  0  0  0  0  0  0
    1.3335    0.5383    0.7412 C   0  0  0  0  0  0  0  0  0  0  0  0
    0.5988   -0.4667    1.4428 C   0  0  0  0  0  0  0  0  0  0  0  0
    1.2297   -1.4265    2.2799 C   0  0  0  0  0  0  0  0  0  0  0  0
    0.5261   -2.4248    2.9710 C   0  0  0  0  0  0  0  0  0  0  0  0
    1.1800   -3.3639    3.7875 C   0  0  0  0  0  0  0  0  0  0  0  0
    0.4576   -4.3492    4.4614 C   0  0  0  0  0  0  0  0  0  0  0  0
   -0.9257   -4.4072    4.3271 C   0  0  0  0  0  0  0  0  0  0  0  0
   -1.5848   -3.4790    3.5200 C   0  0  0  0  0  0  0  0  0  0  0  0
   -0.8670   -2.4816    2.8373 C   0  0  0  0  0  0  0  0  0  0  0  0
   -1.5057   -1.5359    2.0199 C   0  0  0  0  0  0  0  0  0  0  0  0
   -0.8067   -0.5222    1.3096 C   0  0  0  0  0  0  0  0  0  0  0  0
   -1.4723    0.4289    0.4759 C   0  0  0  0  0  0  0  0  0  0  0  0
   -2.9529    0.3768    0.3413 C   0  0  0  0  0  0  0  0  0  0  0  0
   -3.5227   -0.4561   -0.6622 C   0  0  0  0  0  0  0  0  0  0  0  0
   -4.9144   -0.3841   -0.6578 C   0  0  0  0  0  0  0  0  0  0  0  0
   -5.7971   -1.0388   -1.4865 C   0  0  0  0  0  0  0  0  0  0  0  0
   -5.7096   -1.9511   -2.6201 C   0  0  0  0  0  0  0  0  0  0  0  0
   -6.6361   -2.9951   -2.7619 C   0  0  0  0  0  0  0  0  0  0  0  0
   -6.5620   -3.8767   -3.8432 C   0  0  0  0  0  0  0  0  0  0  0  0
   -5.5622   -3.7214   -4.8002 C   0  0  0  0  0  0  0  0  0  0  0  0
   -4.6406   -2.6836   -4.6789 C   0  0  0  0  0  0  0  0  0  0  0  0
   -4.7150   -1.8026   -3.5963 C   0  0  0  0  0  0  0  0  0  0  0  0
   -7.0781   -0.6967   -1.1164 O   0  0  0  0  0  0  0  0  0  0  0  0
   -7.0160    0.1808   -0.0582 C   0  0  0  0  0  0  0  0  0  0  0  0
   -8.3092    0.6155    0.4551 C   0  0  0  0  0  0  0  0  0  0  0  0
   -9.3709    0.8747   -0.4248 C   0  0  0  0  0  0  0  0  0  0  0  0
  -10.6134    1.2953    0.0566 C   0  0  0  0  0  0  0  0  0  0  0  0
  -10.8112    1.4562    1.4258 C   0  0  0  0  0  0  0  0  0  0  0  0
   -9.7702    1.1923    2.3132 C   0  0  0  0  0  0  0  0  0  0  0  0
   -8.5272    0.7730    1.8304 C   0  0  0  0  0  0  0  0  0  0  0  0
   -5.6921    0.4037    0.2465 C   0  0  0  0  0  0  0  0  0  0  0  0
   -5.1720    1.2376    1.2317 C   0  0  0  0  0  0  0  0  0  0  0  0
   -3.7582    1.1839    1.2382 C   0  0  0  0  0  0  0  0  0  0  0  0
   -0.7368    1.4328   -0.2274 C   0  0  0  0  0  0  0  0  0  0  0  0
   -1.3656    2.3905   -1.0686 C   0  0  0  0  0  0  0  0  0  0  0  0
   -0.6601    3.3849   -1.7641 C   0  0  0  0  0  0  0  0  0  0  0  0
   -1.3121    4.3200   -2.5864 C   0  0  0  0  0  0  0  0  0  0  0  0
   -0.5875    5.2993   -3.2672 C   0  0  0  0  0  0  0  0  0  0  0  0
    0.7961    5.3550   -3.1342 C   0  0  0  0  0  0  0  0  0  0  0  0
    1.4533    4.4315   -2.3202 C   0  0  0  0  0  0  0  0  0  0  0  0
    0.7329    3.4412   -1.6297 C   0  0  0  0  0  0  0  0  0  0  0  0
    1.3690    2.5008   -0.8047 C   0  0  0  0  0  0  0  0  0  0  0  0
    0.6684    1.4887   -0.0933 C   0  0  0  0  0  0  0  0  0  0  0  0
    3.6079   -0.1629   -0.0335 C   0  0  0  0  0  0  0  0  0  0  0  0
    4.9678   -0.0046    0.2224 C   0  0  0  0  0  0  0  0  0  0  0  0
    6.0245   -0.5558   -0.4657 C   0  0  0  0  0  0  0  0  0  0  0  0
    6.1957   -1.4739   -1.5853 C   0  0  0  0  0  0  0  0  0  0  0  0
    5.3460   -2.5755   -1.7573 C   0  0  0  0  0  0  0  0  0  0  0  0
    5.5152   -3.4459   -2.8383 C   0  0  0  0  0  0  0  0  0  0  0  0
    6.5393   -3.2278   -3.7574 C   0  0  0  0  0  0  0  0  0  0  0  0
    7.3982   -2.1437   -3.5942 C   0  0  0  0  0  0  0  0  0  0  0  0
    7.2283   -1.2745   -2.5137 C   0  0  0  0  0  0  0  0  0  0  0  0
    7.1948   -0.0891    0.0884 O   0  0  0  0  0  0  0  0  0  0  0  0
    6.8886    0.7351    1.1474 C   0  0  0  0  0  0  0  0  0  0  0  0
    8.0409    1.2802    1.8547 C   0  0  0  0  0  0  0  0  0  0  0  0
    9.1867    1.6717    1.1464 C   0  0  0  0  0  0  0  0  0  0  0  0
   10.2958    2.1980    1.8132 C   0  0  0  0  0  0  0  0  0  0  0  0
   10.2748    2.3353    3.1990 C   0  0  0  0  0  0  0  0  0  0  0  0
    9.1484    1.9419    3.9180 C   0  0  0  0  0  0  0  0  0  0  0  0
    8.0390    1.4154    3.2497 C   0  0  0  0  0  0  0  0  0  0  0  0
    5.5186    0.8177    1.2535 C   0  0  0  0  0  0  0  0  0  0  0  0
    5.1713    2.2259    2.9209 H   0  0  0  0  0  0  0  0  0  0  0  0
    2.7044    1.9727    2.5638 H   0  0  0  0  0  0  0  0  0  0  0  0
    2.3120   -1.4040    2.4025 H   0  0  0  0  0  0  0  0  0  0  0  0
    2.2615   -3.3324    3.9026 H   0  0  0  0  0  0  0  0  0  0  0  0
    0.9742   -5.0701    5.0897 H   0  0  0  0  0  0  0  0  0  0  0  0
   -1.4924   -5.1736    4.8493 H   0  0  0  0  0  0  0  0  0  0  0  0
   -2.6668   -3.5391    3.4232 H   0  0  0  0  0  0  0  0  0  0  0  0
   -2.5904   -1.6003    1.9370 H   0  0  0  0  0  0  0  0  0  0  0  0
   -2.9269   -1.0667   -1.3269 H   0  0  0  0  0  0  0  0  0  0  0  0
   -7.4236   -3.1287   -2.0227 H   0  0  0  0  0  0  0  0  0  0  0  0
   -7.2868   -4.6812   -3.9374 H   0  0  0  0  0  0  0  0  0  0  0  0
   -5.5053   -4.4047   -5.6437 H   0  0  0  0  0  0  0  0  0  0  0  0
   -3.8667   -2.5541   -5.4311 H   0  0  0  0  0  0  0  0  0  0  0  0
   -3.9980   -0.9876   -3.5373 H   0  0  0  0  0  0  0  0  0  0  0  0
   -9.2332    0.7520   -1.4975 H   0  0  0  0  0  0  0  0  0  0  0  0
  -11.4249    1.4941   -0.6387 H   0  0  0  0  0  0  0  0  0  0  0  0
  -11.7782    1.7806    1.8011 H   0  0  0  0  0  0  0  0  0  0  0  0
   -9.9262    1.3052    3.3829 H   0  0  0  0  0  0  0  0  0  0  0  0
   -7.7384    0.5503    2.5444 H   0  0  0  0  0  0  0  0  0  0  0  0
   -5.7395    1.8609    1.9074 H   0  0  0  0  0  0  0  0  0  0  0  0
   -3.2354    1.7996    1.9742 H   0  0  0  0  0  0  0  0  0  0  0  0
   -2.4477    2.3683   -1.1926 H   0  0  0  0  0  0  0  0  0  0  0  0
   -2.3933    4.2905   -2.7010 H   0  0  0  0  0  0  0  0  0  0  0  0
   -1.1047    6.0161   -3.8992 H   0  0  0  0  0  0  0  0  0  0  0  0
    1.3654    6.1154   -3.6621 H   0  0  0  0  0  0  0  0  0  0  0  0
    2.5356    4.4886   -2.2272 H   0  0  0  0  0  0  0  0  0  0  0  0
    2.4533    2.5663   -0.7187 H   0  0  0  0  0  0  0  0  0  0  0  0
    3.1830   -0.7612   -0.8279 H   0  0  0  0  0  0  0  0  0  0  0  0
    4.5537   -2.7815   -1.0417 H   0  0  0  0  0  0  0  0  0  0  0  0
    4.8508   -4.2977   -2.9582 H   0  0  0  0  0  0  0  0  0  0  0  0
    6.6720   -3.9055   -4.5967 H   0  0  0  0  0  0  0  0  0  0  0  0
    8.2025   -1.9728   -4.3049 H   0  0  0  0  0  0  0  0  0  0  0  0
    7.9084   -0.4325   -2.4011 H   0  0  0  0  0  0  0  0  0  0  0  0
    9.2202    1.5707    0.0634 H   0  0  0  0  0  0  0  0  0  0  0  0
   11.1750    2.4969    1.2484 H   0  0  0  0  0  0  0  0  0  0  0  0
   11.1386    2.7418    3.7184 H   0  0  0  0  0  0  0  0  0  0  0  0
    9.1351    2.0368    5.0007 H   0  0  0  0  0  0  0  0  0  0  0  0
    7.1821    1.0925    3.8354 H   0  0  0  0  0  0  0  0  0  0  0  0
  1  2  4  0
  2  3  4  0
  3  4  1  0
  4  5  4  0
  5  6  4  0
  6  7  4  0
  7  8  4  0
  8  9  4  0
  9 10  4  0
 10 11  4  0
 11 12  4  0
 12 13  4  0
 13 14  4  0
 14 15  4  0
 15 16  1  0
 16 17  4  0
 17 18  4  0
 18 19  4  0
 19 20  1  0
 20 21  4  0
 21 22  4  0
 22 23  4  0
 23 24  4  0
 24 25  4  0
 19 26  4  0
 26 27  4  0
 27 28  1  0
 28 29  4  0
 29 30  4  0
 30 31  4  0
 31 32  4  0
 32 33  4  0
 27 34  4  0
 34 35  4  0
 35 36  4  0
 15 37  4  0
 37 38  4  0
 38 39  4  0
 39 40  4  0
 40 41  4  0
 41 42  4  0
 42 43  4  0
 43 44  4  0
 44 45  4  0
 45 46  4  0
  3 47  4  0
 47 48  4  0
 48 49  4  0
 49 50  1  0
 50 51  4  0
 51 52  4  0
 52 53  4  0
 53 54  4  0
 54 55  4  0
 49 56  4  0
 56 57  4  0
 57 58  1  0
 58 59  4  0
 59 60  4  0
 60 61  4  0
 61 62  4  0
 62 63  4  0
 57 64  4  0
 64  1  4  0
 46  4  4  0
 64 48  4  0
 14  5  4  0
 36 16  4  0
 46 37  4  0
 55 50  4  0
 63 58  4  0
 12  7  4  0
 34 18  4  0
 44 39  4  0
 25 20  4  0
 33 28  4  0
  1 65  1  0
  2 66  1  0
  6 67  1  0
  8 68  1  0
  9 69  1  0
 10 70  1  0
 11 71  1  0
 13 72  1  0
 17 73  1  0
 21 74  1  0
 22 75  1  0
 23 76  1  0
 24 77  1  0
 25 78  1  0
 29 79  1  0
 30 80  1  0
 31 81  1  0
 32 82  1  0
 33 83  1  0
 35 84  1  0
 36 85  1  0
 38 86  1  0
 40 87  1  0
 41 88  1  0
 42 89  1  0
 43 90  1  0
 45 91  1  0
 47 92  1  0
 51 93  1  0
 52 94  1  0
 53 95  1  0
 54 96  1  0
 55 97  1  0
 59 98  1  0
 60 99  1  0
 61100  1  0
 62101  1  0
 63102  1  0
M  END
