
     RDKit          3D

 96110  0  0  0  0  0  0  0  0999 V2000
  -11.6043    1.8607   -1.0435 C   0  0  0  0  0  0  0  0  0  0  0  0
  -10.7853    2.9162   -1.4218 C   0  0  0  0  0  0  0  0  0  0  0  0
   -9.3997    2.7782   -1.3325 C   0  0  0  0  0  0  0  0  0  0  0  0
   -8.8183    1.6031   -0.8716 C   0  0  0  0  0  0  0  0  0  0  0  0
   -7.4783    1.5069   -0.7995 N   0  0  0  0  0  0  0  0  0  0  0  0
   -6.9650    0.3502   -0.3481 C   0  0  0  0  0  0  0  0  0  0  0  0
   -5.5927    0.2048   -0.2550 C   0  0  0  0  0  0  0  0  0  0  0  0
   -5.0149   -0.9635    0.2088 C   0  0  0  0  0  0  0  0  0  0  0  0
   -3.6809   -1.0503    0.2829 N   0  0  0  0  0  0  0  0  0  0  0  0
   -3.1335   -2.1938    0.7483 C   0  0  0  0  0  0  0  0  0  0  0  0
   -3.9668   -3.2666    1.1365 C   0  0  0  0  0  0  0  0  0  0  0  0
   -5.3086   -3.1848    1.0528 N   0  0  0  0  0  0  0  0  0  0  0  0
   -5.8362   -2.0358    0.5947 C   0  0  0  0  0  0  0  0  0  0  0  0
   -7.2111   -1.8914    0.4989 C   0  0  0  0  0  0  0  0  0  0  0  0
   -7.7944   -0.7216    0.0371 C   0  0  0  0  0  0  0  0  0  0  0  0
   -9.1333   -0.6276   -0.0341 N   0  0  0  0  0  0  0  0  0  0  0  0
   -9.6511    0.5293   -0.4867 C   0  0  0  0  0  0  0  0  0  0  0  0
  -11.0299    0.6766   -0.5793 C   0  0  0  0  0  0  0  0  0  0  0  0
   -3.3947   -4.4351    1.6212 C   0  0  0  0  0  0  0  0  0  0  0  0
   -2.0137   -4.5756    1.7387 C   0  0  0  0  0  0  0  0  0  0  0  0
   -1.1863   -3.5268    1.3609 C   0  0  0  0  0  0  0  0  0  0  0  0
   -1.7374   -2.3337    0.8612 C   0  0  0  0  0  0  0  0  0  0  0  0
   -0.8335   -1.2226    0.4549 C   0  0  0  0  0  0  0  0  0  0  0  0
   -0.5184   -0.1920    1.3952 C   0  0  0  0  0  0  0  0  0  0  0  0
   -1.0115   -0.1968    2.7296 C   0  0  0  0  0  0  0  0  0  0  0  0
   -0.7143    0.8064    3.6651 C   0  0  0  0  0  0  0  0  0  0  0  0
   -1.2255    0.7780    4.9752 C   0  0  0  0  0  0  0  0  0  0  0  0
   -0.9099    1.7872    5.8859 C   0  0  0  0  0  0  0  0  0  0  0  0
   -0.0811    2.8347    5.4979 C   0  0  0  0  0  0  0  0  0  0  0  0
    0.4303    2.8733    4.2001 C   0  0  0  0  0  0  0  0  0  0  0  0
    0.1166    1.8636    3.2737 C   0  0  0  0  0  0  0  0  0  0  0  0
    0.6090    1.8843    1.9591 C   0  0  0  0  0  0  0  0  0  0  0  0
    0.3044    0.8840    0.9957 C   0  0  0  0  0  0  0  0  0  0  0  0
    0.7912    0.9369   -0.3483 C   0  0  0  0  0  0  0  0  0  0  0  0
    1.6063    2.1020   -0.7889 C   0  0  0  0  0  0  0  0  0  0  0  0
    0.9446    3.2550   -1.2530 C   0  0  0  0  0  0  0  0  0  0  0  0
    1.6707    4.3569   -1.6818 C   0  0  0  0  0  0  0  0  0  0  0  0
    3.0615    4.3093   -1.6530 C   0  0  0  0  0  0  0  0  0  0  0  0
    3.7404    3.1846   -1.2042 C   0  0  0  0  0  0  0  0  0  0  0  0
    5.0860    3.2002   -1.2103 N   0  0  0  0  0  0  0  0  0  0  0  0
    5.7257    2.1015   -0.7750 C   0  0  0  0  0  0  0  0  0  0  0  0
    7.1105    2.0700   -0.7615 C   0  0  0  0  0  0  0  0  0  0  0  0
    7.8138    0.9606   -0.3207 C   0  0  0  0  0  0  0  0  0  0  0  0
    9.1580    0.9836   -0.3235 N   0  0  0  0  0  0  0  0  0  0  0  0
    9.8006   -0.1142    0.1167 C   0  0  0  0  0  0  0  0  0  0  0  0
   11.1901   -0.1388    0.1365 C   0  0  0  0  0  0  0  0  0  0  0  0
   11.8904   -1.2589    0.5867 C   0  0  0  0  0  0  0  0  0  0  0  0
   11.1889   -2.3744    1.0246 C   0  0  0  0  0  0  0  0  0  0  0  0
    9.7936   -2.3592    1.0082 C   0  0  0  0  0  0  0  0  0  0  0  0
    9.0875   -1.2483    0.5618 C   0  0  0  0  0  0  0  0  0  0  0  0
    7.7419   -1.2691    0.5601 N   0  0  0  0  0  0  0  0  0  0  0  0
    7.1017   -0.1698    0.1235 C   0  0  0  0  0  0  0  0  0  0  0  0
    5.7166   -0.1370    0.1091 C   0  0  0  0  0  0  0  0  0  0  0  0
    5.0153    0.9749   -0.3291 C   0  0  0  0  0  0  0  0  0  0  0  0
    3.6735    0.9612   -0.3226 N   0  0  0  0  0  0  0  0  0  0  0  0
    3.0130    2.0578   -0.7588 C   0  0  0  0  0  0  0  0  0  0  0  0
    0.4853   -0.0996   -1.2852 C   0  0  0  0  0  0  0  0  0  0  0  0
    0.9577   -0.0822   -2.6270 C   0  0  0  0  0  0  0  0  0  0  0  0
    0.6636   -1.0873   -3.5613 C   0  0  0  0  0  0  0  0  0  0  0  0
    1.1403   -1.0367   -4.8832 C   0  0  0  0  0  0  0  0  0  0  0  0
    0.8320   -2.0489   -5.7925 C   0  0  0  0  0  0  0  0  0  0  0  0
    0.0474   -3.1244   -5.3903 C   0  0  0  0  0  0  0  0  0  0  0  0
   -0.4290   -3.1852   -4.0802 C   0  0  0  0  0  0  0  0  0  0  0  0
   -0.1298   -2.1674   -3.1578 C   0  0  0  0  0  0  0  0  0  0  0  0
   -0.6069   -2.1971   -1.8379 C   0  0  0  0  0  0  0  0  0  0  0  0
   -0.3229   -1.1844   -0.8809 C   0  0  0  0  0  0  0  0  0  0  0  0
  -12.6857    1.9535   -1.1074 H   0  0  0  0  0  0  0  0  0  0  0  0
  -11.2180    3.8447   -1.7852 H   0  0  0  0  0  0  0  0  0  0  0  0
   -8.7567    3.6038   -1.6283 H   0  0  0  0  0  0  0  0  0  0  0  0
   -4.9490    1.0299   -0.5504 H   0  0  0  0  0  0  0  0  0  0  0  0
   -7.8505   -2.7187    0.7957 H   0  0  0  0  0  0  0  0  0  0  0  0
  -11.6696   -0.1512   -0.2825 H   0  0  0  0  0  0  0  0  0  0  0  0
   -4.0448   -5.2552    1.9183 H   0  0  0  0  0  0  0  0  0  0  0  0
   -1.5883   -5.4987    2.1235 H   0  0  0  0  0  0  0  0  0  0  0  0
   -0.1063   -3.6309    1.4505 H   0  0  0  0  0  0  0  0  0  0  0  0
   -1.6605   -1.0060    3.0602 H   0  0  0  0  0  0  0  0  0  0  0  0
   -1.8755   -0.0339    5.2949 H   0  0  0  0  0  0  0  0  0  0  0  0
   -1.3122    1.7538    6.8949 H   0  0  0  0  0  0  0  0  0  0  0  0
    0.1682    3.6231    6.2026 H   0  0  0  0  0  0  0  0  0  0  0  0
    1.0768    3.6998    3.9134 H   0  0  0  0  0  0  0  0  0  0  0  0
    1.2546    2.7163    1.6838 H   0  0  0  0  0  0  0  0  0  0  0  0
   -0.1441    3.2846   -1.2779 H   0  0  0  0  0  0  0  0  0  0  0  0
    1.1592    5.2467   -2.0391 H   0  0  0  0  0  0  0  0  0  0  0  0
    3.6348    5.1702   -1.9909 H   0  0  0  0  0  0  0  0  0  0  0  0
    7.6613    2.9417   -1.1051 H   0  0  0  0  0  0  0  0  0  0  0  0
   11.7382    0.7354   -0.2070 H   0  0  0  0  0  0  0  0  0  0  0  0
   12.9775   -1.2555    0.5933 H   0  0  0  0  0  0  0  0  0  0  0  0
   11.7203   -3.2545    1.3780 H   0  0  0  0  0  0  0  0  0  0  0  0
    9.2420   -3.2314    1.3511 H   0  0  0  0  0  0  0  0  0  0  0  0
    5.1622   -1.0073    0.4521 H   0  0  0  0  0  0  0  0  0  0  0  0
    1.5826    0.7417   -2.9670 H   0  0  0  0  0  0  0  0  0  0  0  0
    1.7569   -0.2032   -5.2122 H   0  0  0  0  0  0  0  0  0  0  0  0
    1.2046   -1.9963   -6.8119 H   0  0  0  0  0  0  0  0  0  0  0  0
   -0.1971   -3.9152   -6.0946 H   0  0  0  0  0  0  0  0  0  0  0  0
   -1.0397   -4.0346   -3.7831 H   0  0  0  0  0  0  0  0  0  0  0  0
   -1.2305   -3.0434   -1.5561 H   0  0  0  0  0  0  0  0  0  0  0  0
  1  2  4  0
  2  3  4  0
  3  4  4  0
  4  5  4  0
  5  6  4  0
  6  7  4  0
  7  8  4  0
  8  9  4  0
  9 10  4  0
 10 11  4  0
 11 12  4  0
 12 13  4  0
 13 14  4  0
 14 15  4  0
 15 16  4  0
 16 17  4  0
 17 18  4  0
 11 19  4  0
 19 20  4  0
 20 21  4  0
 21 22  4  0
 22 23  1  0
 23 24  4  0
 24 25  4  0
 25 26  4  0
 26 27  4  0
 27 28  4  0
 28 29  4  0
 29 30  4  0
 30 31  4  0
 31 32  4  0
 32 33  4  0
 33 34  4  0
 34 35  1  0
 35 36  4  0
 36 37  4  0
 37 38  4  0
 38 39  4  0
 39 40  4  0
 40 41  4  0
 41 42  4  0
 42 43  4  0
 43 44  4  0
 44 45  4  0
 45 46  4  0
 46 47  4  0
 47 48  4  0
 48 49  4  0
 49 50  4  0
 50 51  4  0
 51 52  4  0
 52 53  4  0
 53 54  4  0
 54 55  4  0
 55 56  4  0
 34 57  4  0
 57 58  4  0
 58 59  4  0
 59 60  4  0
 60 61  4  0
 61 62  4  0
 62 63  4  0
 63 64  4  0
 64 65  4  0
 65 66  4  0
 18  1  4  0
 66 23  4  0
 17  4  4  0
 33 24  4  0
 56 35  4  0
 66 57  4  0
 15  6  4  0
 31 26  4  0
 56 39  4  0
 64 59  4  0
 13  8  4  0
 54 41  4  0
 22 10  4  0
 52 43  4  0
 50 45  4  0
  1 67  1  0
  2 68  1  0
  3 69  1  0
  7 70  1  0
 14 71  1  0
 18 72  1  0
 19 73  1  0
 20 74  1  0
 21 75  1  0
 25 76  1  0
 27 77  1  0
 28 78  1  0
 29 79  1  0
 30 80  1  0
 32 81  1  0
 36 82  1  0
 37 83  1  0
 38 84  1  0
 42 85  1  0
 46 86  1  0
 47 87  1  0
 48 88  1  0
 49 89  1  0
 53 90  1  0
 58 91  1  0
 60 92  1  0
 61 93  1  0
 62 94  1  0
 63 95  1  0
 65 96  1  0
M  END
