
     RDKit          3D

 96110  0  0  0  0  0  0  0  0999 V2000
  -13.9481   -2.8125   -1.0217 C   0  0  0  0  0  0  0  0  0  0  0  0
  -13.2227   -1.7736   -0.4374 C   0  0  0  0  0  0  0  0  0  0  0  0
  -11.8356   -1.7310   -0.5096 C   0  0  0  0  0  0  0  0  0  0  0  0
  -11.1685   -0.7134    0.0655 N   0  0  0  0  0  0  0  0  0  0  0  0
   -9.8279   -0.7163   -0.0314 C   0  0  0  0  0  0  0  0  0  0  0  0
   -9.0962    0.3107    0.5424 C   0  0  0  0  0  0  0  0  0  0  0  0
   -7.7133    0.3539    0.4702 C   0  0  0  0  0  0  0  0  0  0  0  0
   -7.0480    1.3734    1.0400 N   0  0  0  0  0  0  0  0  0  0  0  0
   -5.7066    1.3704    0.9447 C   0  0  0  0  0  0  0  0  0  0  0  0
   -4.9773    2.4063    1.5110 C   0  0  0  0  0  0  0  0  0  0  0  0
   -3.5839    2.4379    1.4342 C   0  0  0  0  0  0  0  0  0  0  0  0
   -2.8911    1.4118    0.7834 C   0  0  0  0  0  0  0  0  0  0  0  0
   -1.4107    1.4342    0.6941 C   0  0  0  0  0  0  0  0  0  0  0  0
   -0.6302    0.9048    1.7686 C   0  0  0  0  0  0  0  0  0  0  0  0
   -1.2190    0.3252    2.9258 C   0  0  0  0  0  0  0  0  0  0  0  0
   -0.4713   -0.1863    3.9985 C   0  0  0  0  0  0  0  0  0  0  0  0
   -1.0849   -0.7518    5.1303 C   0  0  0  0  0  0  0  0  0  0  0  0
   -0.3182   -1.2505    6.1843 C   0  0  0  0  0  0  0  0  0  0  0  0
    1.0700   -1.1899    6.1196 C   0  0  0  0  0  0  0  0  0  0  0  0
    1.6893   -0.6322    5.0003 C   0  0  0  0  0  0  0  0  0  0  0  0
    0.9259   -0.1271    3.9325 C   0  0  0  0  0  0  0  0  0  0  0  0
    1.5224    0.4363    2.7932 C   0  0  0  0  0  0  0  0  0  0  0  0
    0.7803    0.9529    1.6952 C   0  0  0  0  0  0  0  0  0  0  0  0
    1.4083    1.5129    0.5380 C   0  0  0  0  0  0  0  0  0  0  0  0
    2.8893    1.5692    0.4682 C   0  0  0  0  0  0  0  0  0  0  0  0
    3.5820    2.7190    0.8613 C   0  0  0  0  0  0  0  0  0  0  0  0
    4.9773    2.7526    0.8076 C   0  0  0  0  0  0  0  0  0  0  0  0
    5.7088    1.6551    0.3747 C   0  0  0  0  0  0  0  0  0  0  0  0
    7.0525    1.7201    0.3448 N   0  0  0  0  0  0  0  0  0  0  0  0
    7.7188    0.6290   -0.0714 C   0  0  0  0  0  0  0  0  0  0  0  0
    9.1036    0.6453   -0.1178 C   0  0  0  0  0  0  0  0  0  0  0  0
    9.8360   -0.4544   -0.5349 C   0  0  0  0  0  0  0  0  0  0  0  0
   11.1782   -0.3897   -0.5600 N   0  0  0  0  0  0  0  0  0  0  0  0
   11.8468   -1.4834   -0.9709 C   0  0  0  0  0  0  0  0  0  0  0  0
   13.2359   -1.4665   -1.0149 C   0  0  0  0  0  0  0  0  0  0  0  0
   13.9630   -2.5810   -1.4351 C   0  0  0  0  0  0  0  0  0  0  0  0
   13.2887   -3.7329   -1.8182 C   0  0  0  0  0  0  0  0  0  0  0  0
   11.8941   -3.7596   -1.7776 C   0  0  0  0  0  0  0  0  0  0  0  0
   11.1614   -2.6546   -1.3606 C   0  0  0  0  0  0  0  0  0  0  0  0
    9.8168   -2.7159   -1.3345 N   0  0  0  0  0  0  0  0  0  0  0  0
    9.1526   -1.6223   -0.9239 C   0  0  0  0  0  0  0  0  0  0  0  0
    7.7680   -1.6379   -0.8798 C   0  0  0  0  0  0  0  0  0  0  0  0
    7.0361   -0.5384   -0.4622 C   0  0  0  0  0  0  0  0  0  0  0  0
    5.6939   -0.6032   -0.4370 N   0  0  0  0  0  0  0  0  0  0  0  0
    5.0237    0.4872   -0.0221 C   0  0  0  0  0  0  0  0  0  0  0  0
    3.6339    0.4650    0.0240 C   0  0  0  0  0  0  0  0  0  0  0  0
    0.6273    2.0253   -0.5453 C   0  0  0  0  0  0  0  0  0  0  0  0
    1.2130    2.5737   -1.7194 C   0  0  0  0  0  0  0  0  0  0  0  0
    0.4612    3.0928   -2.7866 C   0  0  0  0  0  0  0  0  0  0  0  0
    1.0691    3.6283   -3.9355 C   0  0  0  0  0  0  0  0  0  0  0  0
    0.2972    4.1401   -4.9802 C   0  0  0  0  0  0  0  0  0  0  0  0
   -1.0908    4.1238   -4.8902 C   0  0  0  0  0  0  0  0  0  0  0  0
   -1.7046    3.5931   -3.7553 C   0  0  0  0  0  0  0  0  0  0  0  0
   -0.9359    3.0742   -2.6976 C   0  0  0  0  0  0  0  0  0  0  0  0
   -1.5287    2.5310   -1.5477 C   0  0  0  0  0  0  0  0  0  0  0  0
   -0.7834    1.9944   -0.4622 C   0  0  0  0  0  0  0  0  0  0  0  0
   -3.6338    0.3663    0.2122 C   0  0  0  0  0  0  0  0  0  0  0  0
   -5.0223    0.3326    0.2772 C   0  0  0  0  0  0  0  0  0  0  0  0
   -5.6918   -0.6839   -0.2961 N   0  0  0  0  0  0  0  0  0  0  0  0
   -7.0320   -0.6774   -0.2034 C   0  0  0  0  0  0  0  0  0  0  0  0
   -7.7629   -1.7034   -0.7788 C   0  0  0  0  0  0  0  0  0  0  0  0
   -9.1454   -1.7452   -0.7084 C   0  0  0  0  0  0  0  0  0  0  0  0
   -9.8083   -2.7621   -1.2840 N   0  0  0  0  0  0  0  0  0  0  0  0
  -11.1509   -2.7621   -1.1891 C   0  0  0  0  0  0  0  0  0  0  0  0
  -11.8820   -3.7924   -1.7678 C   0  0  0  0  0  0  0  0  0  0  0  0
  -13.2747   -3.8265   -1.6899 C   0  0  0  0  0  0  0  0  0  0  0  0
  -15.0327   -2.8250   -0.9524 H   0  0  0  0  0  0  0  0  0  0  0  0
  -13.7480   -0.9785    0.0863 H   0  0  0  0  0  0  0  0  0  0  0  0
   -9.6232    1.1057    1.0643 H   0  0  0  0  0  0  0  0  0  0  0  0
   -5.5063    3.2081    2.0210 H   0  0  0  0  0  0  0  0  0  0  0  0
   -3.0422    3.2666    1.8864 H   0  0  0  0  0  0  0  0  0  0  0  0
   -2.3031    0.2630    3.0040 H   0  0  0  0  0  0  0  0  0  0  0  0
   -2.1689   -0.8075    5.1972 H   0  0  0  0  0  0  0  0  0  0  0  0
   -0.8054   -1.6860    7.0528 H   0  0  0  0  0  0  0  0  0  0  0  0
    1.6716   -1.5772    6.9378 H   0  0  0  0  0  0  0  0  0  0  0  0
    2.7760   -0.5953    4.9657 H   0  0  0  0  0  0  0  0  0  0  0  0
    2.6104    0.4673    2.7697 H   0  0  0  0  0  0  0  0  0  0  0  0
    3.0391    3.5942    1.2140 H   0  0  0  0  0  0  0  0  0  0  0  0
    5.5063    3.6517    1.1154 H   0  0  0  0  0  0  0  0  0  0  0  0
    9.6315    1.5471    0.1826 H   0  0  0  0  0  0  0  0  0  0  0  0
   13.7613   -0.5631   -0.7142 H   0  0  0  0  0  0  0  0  0  0  0  0
   15.0492   -2.5451   -1.4615 H   0  0  0  0  0  0  0  0  0  0  0  0
   13.8403   -4.6094   -2.1480 H   0  0  0  0  0  0  0  0  0  0  0  0
   11.3643   -4.6606   -2.0773 H   0  0  0  0  0  0  0  0  0  0  0  0
    7.2410   -2.5398   -1.1812 H   0  0  0  0  0  0  0  0  0  0  0  0
    3.1216   -0.4445   -0.2853 H   0  0  0  0  0  0  0  0  0  0  0  0
    2.2971    2.5994   -1.8176 H   0  0  0  0  0  0  0  0  0  0  0  0
    2.1531    3.6493   -4.0247 H   0  0  0  0  0  0  0  0  0  0  0  0
    0.7809    4.5500   -5.8628 H   0  0  0  0  0  0  0  0  0  0  0  0
   -1.6955    4.5212   -5.7016 H   0  0  0  0  0  0  0  0  0  0  0  0
   -2.7911    3.5852   -3.7016 H   0  0  0  0  0  0  0  0  0  0  0  0
   -2.6168    2.5282   -1.5075 H   0  0  0  0  0  0  0  0  0  0  0  0
   -3.1205   -0.4437   -0.3033 H   0  0  0  0  0  0  0  0  0  0  0  0
   -7.2361   -2.4985   -1.3006 H   0  0  0  0  0  0  0  0  0  0  0  0
  -11.3524   -4.5852   -2.2905 H   0  0  0  0  0  0  0  0  0  0  0  0
  -13.8257   -4.6425   -2.1502 H   0  0  0  0  0  0  0  0  0  0  0  0
  1  2  4  0
  2  3  4  0
  3  4  4  0
  4  5  4  0
  5  6  4  0
  6  7  4  0
  7  8  4  0
  8  9  4  0
  9 10  4  0
 10 11  4  0
 11 12  4  0
 12 13  1  0
 13 14  4  0
 14 15  4  0
 15 16  4  0
 16 17  4  0
 17 18  4  0
 18 19  4  0
 19 20  4  0
 20 21  4  0
 21 22  4  0
 22 23  4  0
 23 24  4  0
 24 25  1  0
 25 26  4  0
 26 27  4  0
 27 28  4  0
 28 29  4  0
 29 30  4  0
 30 31  4  0
 31 32  4  0
 32 33  4  0
 33 34  4  0
 34 35  4  0
 35 36  4  0
 36 37  4  0
 37 38  4  0
 38 39  4  0
 39 40  4  0
 40 41  4  0
 41 42  4  0
 42 43  4  0
 43 44  4  0
 44 45  4  0
 45 46  4  0
 24 47  4  0
 47 48  4  0
 48 49  4  0
 49 50  4  0
 50 51  4  0
 51 52  4  0
 52 53  4  0
 53 54  4  0
 54 55  4  0
 55 56  4  0
 12 57  4  0
 57 58  4  0
 58 59  4  0
 59 60  4  0
 60 61  4  0
 61 62  4  0
 62 63  4  0
 63 64  4  0
 64 65  4  0
 65 66  4  0
 66  1  4  0
 64  3  4  0
 62  5  4  0
 60  7  4  0
 58  9  4  0
 56 13  4  0
 23 14  4  0
 46 25  4  0
 56 47  4  0
 21 16  4  0
 45 28  4  0
 54 49  4  0
 43 30  4  0
 41 32  4  0
 39 34  4  0
  1 67  1  0
  2 68  1  0
  6 69  1  0
 10 70  1  0
 11 71  1  0
 15 72  1  0
 17 73  1  0
 18 74  1  0
 19 75  1  0
 20 76  1  0
 22 77  1  0
 26 78  1  0
 27 79  1  0
 31 80  1  0
 35 81  1  0
 36 82  1  0
 37 83  1  0
 38 84  1  0
 42 85  1  0
 46 86  1  0
 48 87  1  0
 50 88  1  0
 51 89  1  0
 52 90  1  0
 53 91  1  0
 55 92  1  0
 57 93  1  0
 61 94  1  0
 65 95  1  0
 66 96  1  0
M  END
