
     RDKit          3D

100114  0  0  0  0  0  0  0  0999 V2000
    9.3902   -3.0484    1.7341 C   0  0  0  0  0  0  0  0  0  0  0  0
    8.3249   -3.9381    1.8065 C   0  0  0  0  0  0  0  0  0  0  0  0
    7.0249   -3.4902    1.5517 C   0  0  0  0  0  0  0  0  0  0  0  0
    6.7575   -2.1675    1.2237 C   0  0  0  0  0  0  0  0  0  0  0  0
    5.4890   -1.7862    0.9871 N   0  0  0  0  0  0  0  0  0  0  0  0
    5.2358   -0.5046    0.6708 C   0  0  0  0  0  0  0  0  0  0  0  0
    3.9316   -0.0999    0.4271 C   0  0  0  0  0  0  0  0  0  0  0  0
    3.5886    1.2371    0.0916 C   0  0  0  0  0  0  0  0  0  0  0  0
    4.6186    2.1850   -0.0013 C   0  0  0  0  0  0  0  0  0  0  0  0
    5.9225    1.7859    0.2408 C   0  0  0  0  0  0  0  0  0  0  0  0
    6.2456    0.4605    0.5753 C   0  0  0  0  0  0  0  0  0  0  0  0
    7.5632    0.0587    0.8224 C   0  0  0  0  0  0  0  0  0  0  0  0
    7.8406   -1.2715    1.1526 C   0  0  0  0  0  0  0  0  0  0  0  0
    9.1508   -1.7155    1.4078 C   0  0  0  0  0  0  0  0  0  0  0  0
    4.4077    3.4691   -0.3126 N   0  0  0  0  0  0  0  0  0  0  0  0
    3.1624    3.9010   -0.5504 C   0  0  0  0  0  0  0  0  0  0  0  0
    2.9906    5.2411   -0.8739 C   0  0  0  0  0  0  0  0  0  0  0  0
    1.7313    5.7840   -1.1335 C   0  0  0  0  0  0  0  0  0  0  0  0
    0.6109    4.9710   -1.0680 C   0  0  0  0  0  0  0  0  0  0  0  0
    0.7603    3.6228   -0.7476 C   0  0  0  0  0  0  0  0  0  0  0  0
    2.0365    3.0609   -0.4850 C   0  0  0  0  0  0  0  0  0  0  0  0
    2.2615    1.6921   -0.1559 C   0  0  0  0  0  0  0  0  0  0  0  0
    1.1065    0.7453   -0.0646 C   0  0  0  0  0  0  0  0  0  0  0  0
    0.4488    0.5592    1.1929 C   0  0  0  0  0  0  0  0  0  0  0  0
    0.8687    1.2187    2.3802 C   0  0  0  0  0  0  0  0  0  0  0  0
    0.2329    1.0521    3.6206 C   0  0  0  0  0  0  0  0  0  0  0  0
    0.6745    1.7179    4.7781 C   0  0  0  0  0  0  0  0  0  0  0  0
    0.0255    1.5343    6.0000 C   0  0  0  0  0  0  0  0  0  0  0  0
   -1.0733    0.6846    6.0777 C   0  0  0  0  0  0  0  0  0  0  0  0
   -1.5211    0.0202    4.9345 C   0  0  0  0  0  0  0  0  0  0  0  0
   -0.8731    0.1970    3.6992 C   0  0  0  0  0  0  0  0  0  0  0  0
   -1.3025   -0.4588    2.5344 C   0  0  0  0  0  0  0  0  0  0  0  0
   -0.6677   -0.3011    1.2721 C   0  0  0  0  0  0  0  0  0  0  0  0
   -1.1252   -0.9684    0.0928 C   0  0  0  0  0  0  0  0  0  0  0  0
   -2.3467   -1.8297    0.1590 C   0  0  0  0  0  0  0  0  0  0  0  0
   -2.2419   -3.2137    0.4725 C   0  0  0  0  0  0  0  0  0  0  0  0
   -1.0205   -3.8796    0.7481 C   0  0  0  0  0  0  0  0  0  0  0  0
   -0.9882   -5.2404    1.0473 C   0  0  0  0  0  0  0  0  0  0  0  0
   -2.1724   -5.9604    1.0766 C   0  0  0  0  0  0  0  0  0  0  0  0
   -3.3786   -5.3125    0.8061 C   0  0  0  0  0  0  0  0  0  0  0  0
   -3.4357   -3.9580    0.5048 C   0  0  0  0  0  0  0  0  0  0  0  0
   -4.6378   -3.4210    0.2546 N   0  0  0  0  0  0  0  0  0  0  0  0
   -4.7362   -2.1201   -0.0438 C   0  0  0  0  0  0  0  0  0  0  0  0
   -5.9962   -1.6046   -0.3044 C   0  0  0  0  0  0  0  0  0  0  0  0
   -6.1928   -0.2530   -0.6366 C   0  0  0  0  0  0  0  0  0  0  0  0
   -7.4615    0.2714   -0.9074 C   0  0  0  0  0  0  0  0  0  0  0  0
   -7.6056    1.6238   -1.2352 C   0  0  0  0  0  0  0  0  0  0  0  0
   -8.8616    2.1908   -1.5151 C   0  0  0  0  0  0  0  0  0  0  0  0
   -8.9666    3.5421   -1.8369 C   0  0  0  0  0  0  0  0  0  0  0  0
   -7.8213    4.3284   -1.8804 C   0  0  0  0  0  0  0  0  0  0  0  0
   -6.5755    3.7590   -1.6018 C   0  0  0  0  0  0  0  0  0  0  0  0
   -6.4422    2.4155   -1.2783 C   0  0  0  0  0  0  0  0  0  0  0  0
   -5.2210    1.9174   -1.0190 N   0  0  0  0  0  0  0  0  0  0  0  0
   -5.0984    0.6173   -0.7066 C   0  0  0  0  0  0  0  0  0  0  0  0
   -3.8431    0.0988   -0.4388 C   0  0  0  0  0  0  0  0  0  0  0  0
   -3.6267   -1.2645   -0.1079 C   0  0  0  0  0  0  0  0  0  0  0  0
   -0.4588   -0.7941   -1.1609 C   0  0  0  0  0  0  0  0  0  0  0  0
   -0.8907   -1.4432   -2.3493 C   0  0  0  0  0  0  0  0  0  0  0  0
   -0.2654   -1.2682   -3.5926 C   0  0  0  0  0  0  0  0  0  0  0  0
   -0.7294   -1.9130   -4.7529 C   0  0  0  0  0  0  0  0  0  0  0  0
   -0.0927   -1.7203   -5.9791 C   0  0  0  0  0  0  0  0  0  0  0  0
    1.0151   -0.8824   -6.0580 C   0  0  0  0  0  0  0  0  0  0  0  0
    1.4836   -0.2374   -4.9120 C   0  0  0  0  0  0  0  0  0  0  0  0
    0.8478   -0.4224   -3.6718 C   0  0  0  0  0  0  0  0  0  0  0  0
    1.2910    0.2209   -2.5046 C   0  0  0  0  0  0  0  0  0  0  0  0
    0.6602    0.0628   -1.2403 C   0  0  0  0  0  0  0  0  0  0  0  0
   10.4031   -3.3902    1.9307 H   0  0  0  0  0  0  0  0  0  0  0  0
    8.4976   -4.9808    2.0601 H   0  0  0  0  0  0  0  0  0  0  0  0
    6.1971   -4.1927    1.6103 H   0  0  0  0  0  0  0  0  0  0  0  0
    3.1568   -0.8607    0.5058 H   0  0  0  0  0  0  0  0  0  0  0  0
    6.7088    2.5344    0.1664 H   0  0  0  0  0  0  0  0  0  0  0  0
    8.3725    0.7821    0.7579 H   0  0  0  0  0  0  0  0  0  0  0  0
    9.9892   -1.0250    1.3532 H   0  0  0  0  0  0  0  0  0  0  0  0
    3.8668    5.8841   -0.9249 H   0  0  0  0  0  0  0  0  0  0  0  0
    1.6322    6.8367   -1.3836 H   0  0  0  0  0  0  0  0  0  0  0  0
   -0.3780    5.3773   -1.2637 H   0  0  0  0  0  0  0  0  0  0  0  0
   -0.1378    3.0091   -0.7046 H   0  0  0  0  0  0  0  0  0  0  0  0
    1.7240    1.8921    2.3490 H   0  0  0  0  0  0  0  0  0  0  0  0
    1.5313    2.3866    4.7329 H   0  0  0  0  0  0  0  0  0  0  0  0
    0.3785    2.0549    6.8866 H   0  0  0  0  0  0  0  0  0  0  0  0
   -1.5839    0.5379    7.0257 H   0  0  0  0  0  0  0  0  0  0  0  0
   -2.3831   -0.6387    5.0129 H   0  0  0  0  0  0  0  0  0  0  0  0
   -2.1661   -1.1162    2.6252 H   0  0  0  0  0  0  0  0  0  0  0  0
   -0.0761   -3.3380    0.7311 H   0  0  0  0  0  0  0  0  0  0  0  0
   -0.0403   -5.7300    1.2553 H   0  0  0  0  0  0  0  0  0  0  0  0
   -2.1654   -7.0220    1.3083 H   0  0  0  0  0  0  0  0  0  0  0  0
   -4.3046   -5.8831    0.8309 H   0  0  0  0  0  0  0  0  0  0  0  0
   -6.8480   -2.2800   -0.2498 H   0  0  0  0  0  0  0  0  0  0  0  0
   -8.3364   -0.3728   -0.8627 H   0  0  0  0  0  0  0  0  0  0  0  0
   -9.7622    1.5821   -1.4830 H   0  0  0  0  0  0  0  0  0  0  0  0
   -9.9382    3.9788   -2.0519 H   0  0  0  0  0  0  0  0  0  0  0  0
   -7.8895    5.3841   -2.1291 H   0  0  0  0  0  0  0  0  0  0  0  0
   -5.6838    4.3804   -1.6376 H   0  0  0  0  0  0  0  0  0  0  0  0
   -3.0045    0.7904   -0.4964 H   0  0  0  0  0  0  0  0  0  0  0  0
   -1.7520   -2.1093   -2.3184 H   0  0  0  0  0  0  0  0  0  0  0  0
   -1.5974   -2.5676   -4.7070 H   0  0  0  0  0  0  0  0  0  0  0  0
   -0.4618   -2.2238   -6.8692 H   0  0  0  0  0  0  0  0  0  0  0  0
    1.5158   -0.7289   -7.0103 H   0  0  0  0  0  0  0  0  0  0  0  0
    2.3490    0.4167   -4.9927 H   0  0  0  0  0  0  0  0  0  0  0  0
    2.1575    0.8744   -2.5967 H   0  0  0  0  0  0  0  0  0  0  0  0
  1  2  4  0
  2  3  4  0
  3  4  4  0
  4  5  4  0
  5  6  4  0
  6  7  4  0
  7  8  4  0
  8  9  4  0
  9 10  4  0
 10 11  4  0
 11 12  4  0
 12 13  4  0
 13 14  4  0
  9 15  4  0
 15 16  4  0
 16 17  4  0
 17 18  4  0
 18 19  4  0
 19 20  4  0
 20 21  4  0
 21 22  4  0
 22 23  1  0
 23 24  4  0
 24 25  4  0
 25 26  4  0
 26 27  4  0
 27 28  4  0
 28 29  4  0
 29 30  4  0
 30 31  4  0
 31 32  4  0
 32 33  4  0
 33 34  4  0
 34 35  1  0
 35 36  4  0
 36 37  4  0
 37 38  4  0
 38 39  4  0
 39 40  4  0
 40 41  4  0
 41 42  4  0
 42 43  4  0
 43 44  4  0
 44 45  4  0
 45 46  4  0
 46 47  4  0
 47 48  4  0
 48 49  4  0
 49 50  4  0
 50 51  4  0
 51 52  4  0
 52 53  4  0
 53 54  4  0
 54 55  4  0
 55 56  4  0
 34 57  4  0
 57 58  4  0
 58 59  4  0
 59 60  4  0
 60 61  4  0
 61 62  4  0
 62 63  4  0
 63 64  4  0
 64 65  4  0
 65 66  4  0
 14  1  4  0
 21 16  4  0
 66 23  4  0
 13  4  4  0
 33 24  4  0
 56 35  4  0
 66 57  4  0
 11  6  4  0
 31 26  4  0
 41 36  4  0
 56 43  4  0
 64 59  4  0
 22  8  4  0
 54 45  4  0
 52 47  4  0
  1 67  1  0
  2 68  1  0
  3 69  1  0
  7 70  1  0
 10 71  1  0
 12 72  1  0
 14 73  1  0
 17 74  1  0
 18 75  1  0
 19 76  1  0
 20 77  1  0
 25 78  1  0
 27 79  1  0
 28 80  1  0
 29 81  1  0
 30 82  1  0
 32 83  1  0
 37 84  1  0
 38 85  1  0
 39 86  1  0
 40 87  1  0
 44 88  1  0
 46 89  1  0
 48 90  1  0
 49 91  1  0
 50 92  1  0
 51 93  1  0
 55 94  1  0
 58 95  1  0
 60 96  1  0
 61 97  1  0
 62 98  1  0
 63 99  1  0
 65100  1  0
M  END
