
     RDKit          3D

100114  0  0  0  0  0  0  0  0999 V2000
   11.0250    3.2584   -0.8113 C   0  0  0  0  0  0  0  0  0  0  0  0
    9.6362    3.1529   -0.8282 C   0  0  0  0  0  0  0  0  0  0  0  0
    9.0071    1.9926   -0.3429 C   0  0  0  0  0  0  0  0  0  0  0  0
    7.6156    1.8531   -0.3442 C   0  0  0  0  0  0  0  0  0  0  0  0
    7.0285    0.6835    0.1492 C   0  0  0  0  0  0  0  0  0  0  0  0
    5.6338    0.5028    0.1662 C   0  0  0  0  0  0  0  0  0  0  0  0
    5.0571   -0.6581    0.6529 C   0  0  0  0  0  0  0  0  0  0  0  0
    3.7229   -0.7826    0.6423 N   0  0  0  0  0  0  0  0  0  0  0  0
    3.1391   -1.9106    1.1023 C   0  0  0  0  0  0  0  0  0  0  0  0
    1.7397   -2.0622    1.0850 C   0  0  0  0  0  0  0  0  0  0  0  0
    0.8553   -0.9805    0.5670 C   0  0  0  0  0  0  0  0  0  0  0  0
    0.5531   -0.9245   -0.8294 C   0  0  0  0  0  0  0  0  0  0  0  0
    1.0877   -1.8530   -1.7642 C   0  0  0  0  0  0  0  0  0  0  0  0
    0.7978   -1.8178   -3.1369 C   0  0  0  0  0  0  0  0  0  0  0  0
    1.3417   -2.7521   -4.0359 C   0  0  0  0  0  0  0  0  0  0  0  0
    1.0332   -2.6972   -5.3956 C   0  0  0  0  0  0  0  0  0  0  0  0
    0.1794   -1.7080   -5.8723 C   0  0  0  0  0  0  0  0  0  0  0  0
   -0.3643   -0.7747   -4.9887 C   0  0  0  0  0  0  0  0  0  0  0  0
   -0.0602   -0.8210   -3.6170 C   0  0  0  0  0  0  0  0  0  0  0  0
   -0.5929    0.1057   -2.7073 C   0  0  0  0  0  0  0  0  0  0  0  0
   -0.3075    0.0851   -1.3148 C   0  0  0  0  0  0  0  0  0  0  0  0
   -0.8596    1.0392   -0.4037 C   0  0  0  0  0  0  0  0  0  0  0  0
   -1.7405    2.1245   -0.9204 C   0  0  0  0  0  0  0  0  0  0  0  0
   -3.1364    1.9565   -0.9881 C   0  0  0  0  0  0  0  0  0  0  0  0
   -3.7184    0.8051   -0.5869 N   0  0  0  0  0  0  0  0  0  0  0  0
   -5.0494    0.6610   -0.6518 C   0  0  0  0  0  0  0  0  0  0  0  0
   -5.6253   -0.5257   -0.2297 C   0  0  0  0  0  0  0  0  0  0  0  0
   -7.0169   -0.7284   -0.2730 C   0  0  0  0  0  0  0  0  0  0  0  0
   -7.6043   -1.9237    0.1553 C   0  0  0  0  0  0  0  0  0  0  0  0
   -8.9925   -2.0838    0.0963 C   0  0  0  0  0  0  0  0  0  0  0  0
   -9.6213   -3.2691    0.5179 C   0  0  0  0  0  0  0  0  0  0  0  0
  -11.0068   -3.3941    0.4451 C   0  0  0  0  0  0  0  0  0  0  0  0
  -11.7657   -2.3388   -0.0474 C   0  0  0  0  0  0  0  0  0  0  0  0
  -11.1345   -1.1629   -0.4647 C   0  0  0  0  0  0  0  0  0  0  0  0
   -9.7557   -1.0113   -0.4032 C   0  0  0  0  0  0  0  0  0  0  0  0
   -9.1984    0.1410   -0.8168 N   0  0  0  0  0  0  0  0  0  0  0  0
   -7.8641    0.2826   -0.7542 C   0  0  0  0  0  0  0  0  0  0  0  0
   -7.2853    1.4689   -1.1763 C   0  0  0  0  0  0  0  0  0  0  0  0
   -5.8930    1.6715   -1.1305 C   0  0  0  0  0  0  0  0  0  0  0  0
   -5.2999    2.8664   -1.5499 C   0  0  0  0  0  0  0  0  0  0  0  0
   -3.9108    3.0267   -1.4838 C   0  0  0  0  0  0  0  0  0  0  0  0
   -3.3033    4.2238   -1.8987 C   0  0  0  0  0  0  0  0  0  0  0  0
   -1.9236    4.3765   -1.8271 C   0  0  0  0  0  0  0  0  0  0  0  0
   -1.1462    3.3330   -1.3401 C   0  0  0  0  0  0  0  0  0  0  0  0
   -0.5634    0.9785    0.9940 C   0  0  0  0  0  0  0  0  0  0  0  0
   -1.1118    1.8959    1.9319 C   0  0  0  0  0  0  0  0  0  0  0  0
   -0.8236    1.8581    3.3051 C   0  0  0  0  0  0  0  0  0  0  0  0
   -1.3845    2.7777    4.2085 C   0  0  0  0  0  0  0  0  0  0  0  0
   -1.0757    2.7214    5.5683 C   0  0  0  0  0  0  0  0  0  0  0  0
   -0.2032    1.7464    6.0404 C   0  0  0  0  0  0  0  0  0  0  0  0
    0.3572    0.8275    5.1526 C   0  0  0  0  0  0  0  0  0  0  0  0
    0.0507    0.8737    3.7815 C   0  0  0  0  0  0  0  0  0  0  0  0
    0.5951   -0.0430    2.8691 C   0  0  0  0  0  0  0  0  0  0  0  0
    0.3040   -0.0260    1.4778 C   0  0  0  0  0  0  0  0  0  0  0  0
    1.1449   -3.2495    1.5610 C   0  0  0  0  0  0  0  0  0  0  0  0
    1.9242   -4.2854    2.0596 C   0  0  0  0  0  0  0  0  0  0  0  0
    3.3067   -4.1476    2.0842 C   0  0  0  0  0  0  0  0  0  0  0  0
    3.9153   -2.9741    1.6088 C   0  0  0  0  0  0  0  0  0  0  0  0
    5.3076   -2.8323    1.6227 C   0  0  0  0  0  0  0  0  0  0  0  0
    5.9026   -1.6638    1.1375 C   0  0  0  0  0  0  0  0  0  0  0  0
    7.2984   -1.4830    1.1235 C   0  0  0  0  0  0  0  0  0  0  0  0
    7.8784   -0.3234    0.6346 C   0  0  0  0  0  0  0  0  0  0  0  0
    9.2163   -0.2023    0.6398 N   0  0  0  0  0  0  0  0  0  0  0  0
    9.7733    0.9258    0.1645 C   0  0  0  0  0  0  0  0  0  0  0  0
   11.1554    1.0573    0.1687 C   0  0  0  0  0  0  0  0  0  0  0  0
   11.7868    2.2084   -0.3121 C   0  0  0  0  0  0  0  0  0  0  0  0
   11.5099    4.1562   -1.1859 H   0  0  0  0  0  0  0  0  0  0  0  0
    9.0465    3.9783   -1.2203 H   0  0  0  0  0  0  0  0  0  0  0  0
    6.9885    2.6541   -0.7293 H   0  0  0  0  0  0  0  0  0  0  0  0
    4.9740    1.2821   -0.2105 H   0  0  0  0  0  0  0  0  0  0  0  0
    1.7622   -2.6342   -1.4180 H   0  0  0  0  0  0  0  0  0  0  0  0
    2.0114   -3.5310   -3.6784 H   0  0  0  0  0  0  0  0  0  0  0  0
    1.4592   -3.4262   -6.0792 H   0  0  0  0  0  0  0  0  0  0  0  0
   -0.0639   -1.6608   -6.9300 H   0  0  0  0  0  0  0  0  0  0  0  0
   -1.0304   -0.0075   -5.3764 H   0  0  0  0  0  0  0  0  0  0  0  0
   -1.2632    0.8654   -3.1054 H   0  0  0  0  0  0  0  0  0  0  0  0
   -4.9676   -1.3084    0.1435 H   0  0  0  0  0  0  0  0  0  0  0  0
   -6.9799   -2.7287    0.5365 H   0  0  0  0  0  0  0  0  0  0  0  0
   -9.0336   -4.0986    0.9042 H   0  0  0  0  0  0  0  0  0  0  0  0
  -11.4915   -4.3109    0.7710 H   0  0  0  0  0  0  0  0  0  0  0  0
  -12.8475   -2.4239   -0.1093 H   0  0  0  0  0  0  0  0  0  0  0  0
  -11.7352   -0.3416   -0.8486 H   0  0  0  0  0  0  0  0  0  0  0  0
   -7.9398    2.2541   -1.5485 H   0  0  0  0  0  0  0  0  0  0  0  0
   -5.9233    3.6745   -1.9268 H   0  0  0  0  0  0  0  0  0  0  0  0
   -3.9055    5.0461   -2.2796 H   0  0  0  0  0  0  0  0  0  0  0  0
   -1.4555    5.3036   -2.1478 H   0  0  0  0  0  0  0  0  0  0  0  0
   -0.0653    3.4516   -1.2820 H   0  0  0  0  0  0  0  0  0  0  0  0
   -1.7973    2.6688    1.5882 H   0  0  0  0  0  0  0  0  0  0  0  0
   -2.0666    3.5472    3.8550 H   0  0  0  0  0  0  0  0  0  0  0  0
   -1.5155    3.4384    6.2558 H   0  0  0  0  0  0  0  0  0  0  0  0
    0.0422    1.6994    7.0977 H   0  0  0  0  0  0  0  0  0  0  0  0
    1.0376    0.0710    5.5371 H   0  0  0  0  0  0  0  0  0  0  0  0
    1.2767   -0.7938    3.2654 H   0  0  0  0  0  0  0  0  0  0  0  0
    0.0616   -3.3564    1.5407 H   0  0  0  0  0  0  0  0  0  0  0  0
    1.4551   -5.1944    2.4263 H   0  0  0  0  0  0  0  0  0  0  0  0
    3.9101   -4.9641    2.4750 H   0  0  0  0  0  0  0  0  0  0  0  0
    5.9319   -3.6354    2.0080 H   0  0  0  0  0  0  0  0  0  0  0  0
    7.9543   -2.2646    1.5003 H   0  0  0  0  0  0  0  0  0  0  0  0
   11.7582    0.2402    0.5579 H   0  0  0  0  0  0  0  0  0  0  0  0
   12.8711    2.2785   -0.2936 H   0  0  0  0  0  0  0  0  0  0  0  0
  1  2  4  0
  2  3  4  0
  3  4  4  0
  4  5  4  0
  5  6  4  0
  6  7  4  0
  7  8  4  0
  8  9  4  0
  9 10  4  0
 10 11  1  0
 11 12  4  0
 12 13  4  0
 13 14  4  0
 14 15  4  0
 15 16  4  0
 16 17  4  0
 17 18  4  0
 18 19  4  0
 19 20  4  0
 20 21  4  0
 21 22  4  0
 22 23  1  0
 23 24  4  0
 24 25  4  0
 25 26  4  0
 26 27  4  0
 27 28  4  0
 28 29  4  0
 29 30  4  0
 30 31  4  0
 31 32  4  0
 32 33  4  0
 33 34  4  0
 34 35  4  0
 35 36  4  0
 36 37  4  0
 37 38  4  0
 38 39  4  0
 39 40  4  0
 40 41  4  0
 41 42  4  0
 42 43  4  0
 43 44  4  0
 22 45  4  0
 45 46  4  0
 46 47  4  0
 47 48  4  0
 48 49  4  0
 49 50  4  0
 50 51  4  0
 51 52  4  0
 52 53  4  0
 53 54  4  0
 10 55  4  0
 55 56  4  0
 56 57  4  0
 57 58  4  0
 58 59  4  0
 59 60  4  0
 60 61  4  0
 61 62  4  0
 62 63  4  0
 63 64  4  0
 64 65  4  0
 65 66  4  0
 66  1  4  0
 64  3  4  0
 62  5  4  0
 60  7  4  0
 58  9  4  0
 54 11  4  0
 21 12  4  0
 44 23  4  0
 54 45  4  0
 19 14  4  0
 41 24  4  0
 52 47  4  0
 39 26  4  0
 37 28  4  0
 35 30  4  0
  1 67  1  0
  2 68  1  0
  4 69  1  0
  6 70  1  0
 13 71  1  0
 15 72  1  0
 16 73  1  0
 17 74  1  0
 18 75  1  0
 20 76  1  0
 27 77  1  0
 29 78  1  0
 31 79  1  0
 32 80  1  0
 33 81  1  0
 34 82  1  0
 38 83  1  0
 40 84  1  0
 42 85  1  0
 43 86  1  0
 44 87  1  0
 46 88  1  0
 48 89  1  0
 49 90  1  0
 50 91  1  0
 51 92  1  0
 53 93  1  0
 55 94  1  0
 56 95  1  0
 57 96  1  0
 59 97  1  0
 61 98  1  0
 65 99  1  0
 66100  1  0
M  END
