
     RDKit          3D

100114  0  0  0  0  0  0  0  0999 V2000
   -5.0349    6.7700    2.6926 C   0  0  0  0  0  0  0  0  0  0  0  0
   -6.3659    6.4407    2.9208 C   0  0  0  0  0  0  0  0  0  0  0  0
   -6.8062    5.1316    2.7027 C   0  0  0  0  0  0  0  0  0  0  0  0
   -5.9467    4.1351    2.2596 C   0  0  0  0  0  0  0  0  0  0  0  0
   -6.4211    2.8916    2.0650 N   0  0  0  0  0  0  0  0  0  0  0  0
   -5.5850    1.9319    1.6350 C   0  0  0  0  0  0  0  0  0  0  0  0
   -6.0699    0.6501    1.4304 C   0  0  0  0  0  0  0  0  0  0  0  0
   -5.2398   -0.3921    0.9764 C   0  0  0  0  0  0  0  0  0  0  0  0
   -5.7219   -1.6862    0.7594 C   0  0  0  0  0  0  0  0  0  0  0  0
   -4.8650   -2.6907    0.2959 C   0  0  0  0  0  0  0  0  0  0  0  0
   -5.3443   -3.9908    0.0652 C   0  0  0  0  0  0  0  0  0  0  0  0
   -4.4929   -4.9824   -0.4050 C   0  0  0  0  0  0  0  0  0  0  0  0
   -3.1588   -4.6776   -0.6439 C   0  0  0  0  0  0  0  0  0  0  0  0
   -2.6585   -3.3782   -0.4119 C   0  0  0  0  0  0  0  0  0  0  0  0
   -1.2147   -3.1192   -0.6831 C   0  0  0  0  0  0  0  0  0  0  0  0
   -0.8112   -2.6410   -1.9687 C   0  0  0  0  0  0  0  0  0  0  0  0
   -1.7459   -2.3227   -2.9911 C   0  0  0  0  0  0  0  0  0  0  0  0
   -1.3697   -1.8582   -4.2608 C   0  0  0  0  0  0  0  0  0  0  0  0
   -2.3200   -1.5429   -5.2476 C   0  0  0  0  0  0  0  0  0  0  0  0
   -1.9200   -1.0805   -6.5018 C   0  0  0  0  0  0  0  0  0  0  0  0
   -0.5667   -0.9291   -6.7849 C   0  0  0  0  0  0  0  0  0  0  0  0
    0.3845   -1.2371   -5.8115 C   0  0  0  0  0  0  0  0  0  0  0  0
   -0.0073   -1.7018   -4.5438 C   0  0  0  0  0  0  0  0  0  0  0  0
    0.9287   -2.0110   -3.5446 C   0  0  0  0  0  0  0  0  0  0  0  0
    0.5641   -2.4794   -2.2528 C   0  0  0  0  0  0  0  0  0  0  0  0
    1.5335   -2.7937   -1.2496 C   0  0  0  0  0  0  0  0  0  0  0  0
    2.9858   -2.7043   -1.5765 C   0  0  0  0  0  0  0  0  0  0  0  0
    3.6143   -3.8348   -2.1409 C   0  0  0  0  0  0  0  0  0  0  0  0
    4.9646   -3.8123   -2.4662 C   0  0  0  0  0  0  0  0  0  0  0  0
    5.7038   -2.6601   -2.2295 C   0  0  0  0  0  0  0  0  0  0  0  0
    5.0950   -1.5265   -1.6664 C   0  0  0  0  0  0  0  0  0  0  0  0
    5.8367   -0.3656   -1.4206 C   0  0  0  0  0  0  0  0  0  0  0  0
    5.2246    0.7545   -0.8507 C   0  0  0  0  0  0  0  0  0  0  0  0
    5.9349    1.9382   -0.5767 C   0  0  0  0  0  0  0  0  0  0  0  0
    5.3203    3.0413   -0.0066 C   0  0  0  0  0  0  0  0  0  0  0  0
    6.0447    4.1454    0.2376 N   0  0  0  0  0  0  0  0  0  0  0  0
    5.4441    5.2132    0.7924 C   0  0  0  0  0  0  0  0  0  0  0  0
    6.1880    6.3570    1.0486 C   0  0  0  0  0  0  0  0  0  0  0  0
    5.6143    7.4946    1.6245 C   0  0  0  0  0  0  0  0  0  0  0  0
    4.2642    7.4969    1.9554 C   0  0  0  0  0  0  0  0  0  0  0  0
    3.4942    6.3628    1.7090 C   0  0  0  0  0  0  0  0  0  0  0  0
    4.0771    5.2219    1.1295 C   0  0  0  0  0  0  0  0  0  0  0  0
    3.3340    4.0664    0.8689 C   0  0  0  0  0  0  0  0  0  0  0  0
    3.9515    2.9511    0.2931 C   0  0  0  0  0  0  0  0  0  0  0  0
    3.2422    1.7680    0.0171 C   0  0  0  0  0  0  0  0  0  0  0  0
    3.8596    0.6658   -0.5501 C   0  0  0  0  0  0  0  0  0  0  0  0
    3.1406   -0.4406   -0.7876 N   0  0  0  0  0  0  0  0  0  0  0  0
    3.7237   -1.5305   -1.3314 C   0  0  0  0  0  0  0  0  0  0  0  0
    1.1282   -3.2318    0.0499 C   0  0  0  0  0  0  0  0  0  0  0  0
    2.0610   -3.5224    1.0827 C   0  0  0  0  0  0  0  0  0  0  0  0
    1.6829   -3.9618    2.3611 C   0  0  0  0  0  0  0  0  0  0  0  0
    2.6297   -4.2380    3.3628 C   0  0  0  0  0  0  0  0  0  0  0  0
    2.2260   -4.6722    4.6261 C   0  0  0  0  0  0  0  0  0  0  0  0
    0.8727   -4.8354    4.9032 C   0  0  0  0  0  0  0  0  0  0  0  0
   -0.0753   -4.5622    3.9167 C   0  0  0  0  0  0  0  0  0  0  0  0
    0.3205   -4.1238    2.6409 C   0  0  0  0  0  0  0  0  0  0  0  0
   -0.6128   -3.8379    1.6328 C   0  0  0  0  0  0  0  0  0  0  0  0
   -0.2469   -3.3945    0.3330 C   0  0  0  0  0  0  0  0  0  0  0  0
   -3.5118   -2.3638    0.0626 C   0  0  0  0  0  0  0  0  0  0  0  0
   -3.0543   -1.1122    0.2835 N   0  0  0  0  0  0  0  0  0  0  0  0
   -3.8836   -0.1536    0.7215 C   0  0  0  0  0  0  0  0  0  0  0  0
   -3.3958    1.1261    0.9291 C   0  0  0  0  0  0  0  0  0  0  0  0
   -4.2252    2.1700    1.3789 C   0  0  0  0  0  0  0  0  0  0  0  0
   -3.7396    3.4660    1.5842 C   0  0  0  0  0  0  0  0  0  0  0  0
   -4.5997    4.4748    2.0305 C   0  0  0  0  0  0  0  0  0  0  0  0
   -4.1507    5.7897    2.2478 C   0  0  0  0  0  0  0  0  0  0  0  0
   -4.6863    7.7859    2.8601 H   0  0  0  0  0  0  0  0  0  0  0  0
   -7.0657    7.1965    3.2680 H   0  0  0  0  0  0  0  0  0  0  0  0
   -7.8490    4.8817    2.8833 H   0  0  0  0  0  0  0  0  0  0  0  0
   -7.1234    0.4635    1.6273 H   0  0  0  0  0  0  0  0  0  0  0  0
   -6.7697   -1.9095    0.9477 H   0  0  0  0  0  0  0  0  0  0  0  0
   -6.3882   -4.2362    0.2493 H   0  0  0  0  0  0  0  0  0  0  0  0
   -4.8652   -5.9872   -0.5855 H   0  0  0  0  0  0  0  0  0  0  0  0
   -2.4912   -5.4546   -1.0131 H   0  0  0  0  0  0  0  0  0  0  0  0
   -2.8117   -2.4244   -2.7937 H   0  0  0  0  0  0  0  0  0  0  0  0
   -3.3820   -1.6513   -5.0395 H   0  0  0  0  0  0  0  0  0  0  0  0
   -2.6650   -0.8365   -7.2538 H   0  0  0  0  0  0  0  0  0  0  0  0
   -0.2498   -0.5678   -7.7592 H   0  0  0  0  0  0  0  0  0  0  0  0
    1.4387   -1.1095   -6.0466 H   0  0  0  0  0  0  0  0  0  0  0  0
    1.9806   -1.8649   -3.7849 H   0  0  0  0  0  0  0  0  0  0  0  0
    3.0352   -4.7383   -2.3253 H   0  0  0  0  0  0  0  0  0  0  0  0
    5.4367   -4.6893   -2.9006 H   0  0  0  0  0  0  0  0  0  0  0  0
    6.7614   -2.6509   -2.4844 H   0  0  0  0  0  0  0  0  0  0  0  0
    6.8954   -0.3334   -1.6690 H   0  0  0  0  0  0  0  0  0  0  0  0
    6.9954    2.0059   -0.8095 H   0  0  0  0  0  0  0  0  0  0  0  0
    7.2449    6.3630    0.7929 H   0  0  0  0  0  0  0  0  0  0  0  0
    6.2259    8.3733    1.8116 H   0  0  0  0  0  0  0  0  0  0  0  0
    3.8122    8.3778    2.4034 H   0  0  0  0  0  0  0  0  0  0  0  0
    2.4386    6.3713    1.9708 H   0  0  0  0  0  0  0  0  0  0  0  0
    2.2752    4.0339    1.1154 H   0  0  0  0  0  0  0  0  0  0  0  0
    2.1817    1.6966    0.2508 H   0  0  0  0  0  0  0  0  0  0  0  0
    3.1254   -3.3922    0.8956 H   0  0  0  0  0  0  0  0  0  0  0  0
    3.6914   -4.1125    3.1630 H   0  0  0  0  0  0  0  0  0  0  0  0
    2.9681   -4.8801    5.3917 H   0  0  0  0  0  0  0  0  0  0  0  0
    0.5531   -5.1718    5.8857 H   0  0  0  0  0  0  0  0  0  0  0  0
   -1.1301   -4.6907    4.1492 H   0  0  0  0  0  0  0  0  0  0  0  0
   -1.6659   -3.9571    1.8817 H   0  0  0  0  0  0  0  0  0  0  0  0
   -2.3415    1.3090    0.7297 H   0  0  0  0  0  0  0  0  0  0  0  0
   -2.6922    3.6896    1.3947 H   0  0  0  0  0  0  0  0  0  0  0  0
   -3.1109    6.0548    2.0711 H   0  0  0  0  0  0  0  0  0  0  0  0
  1  2  4  0
  2  3  4  0
  3  4  4  0
  4  5  4  0
  5  6  4  0
  6  7  4  0
  7  8  4  0
  8  9  4  0
  9 10  4  0
 10 11  4  0
 11 12  4  0
 12 13  4  0
 13 14  4  0
 14 15  1  0
 15 16  4  0
 16 17  4  0
 17 18  4  0
 18 19  4  0
 19 20  4  0
 20 21  4  0
 21 22  4  0
 22 23  4  0
 23 24  4  0
 24 25  4  0
 25 26  4  0
 26 27  1  0
 27 28  4  0
 28 29  4  0
 29 30  4  0
 30 31  4  0
 31 32  4  0
 32 33  4  0
 33 34  4  0
 34 35  4  0
 35 36  4  0
 36 37  4  0
 37 38  4  0
 38 39  4  0
 39 40  4  0
 40 41  4  0
 41 42  4  0
 42 43  4  0
 43 44  4  0
 44 45  4  0
 45 46  4  0
 46 47  4  0
 47 48  4  0
 26 49  4  0
 49 50  4  0
 50 51  4  0
 51 52  4  0
 52 53  4  0
 53 54  4  0
 54 55  4  0
 55 56  4  0
 56 57  4  0
 57 58  4  0
 14 59  4  0
 59 60  4  0
 60 61  4  0
 61 62  4  0
 62 63  4  0
 63 64  4  0
 64 65  4  0
 65 66  4  0
 66  1  4  0
 65  4  4  0
 63  6  4  0
 61  8  4  0
 59 10  4  0
 58 15  4  0
 25 16  4  0
 48 27  4  0
 58 49  4  0
 23 18  4  0
 48 31  4  0
 56 51  4  0
 46 33  4  0
 44 35  4  0
 42 37  4  0
  1 67  1  0
  2 68  1  0
  3 69  1  0
  7 70  1  0
  9 71  1  0
 11 72  1  0
 12 73  1  0
 13 74  1  0
 17 75  1  0
 19 76  1  0
 20 77  1  0
 21 78  1  0
 22 79  1  0
 24 80  1  0
 28 81  1  0
 29 82  1  0
 30 83  1  0
 32 84  1  0
 34 85  1  0
 38 86  1  0
 39 87  1  0
 40 88  1  0
 41 89  1  0
 43 90  1  0
 45 91  1  0
 50 92  1  0
 52 93  1  0
 53 94  1  0
 54 95  1  0
 55 96  1  0
 57 97  1  0
 62 98  1  0
 64 99  1  0
 66100  1  0
M  END
