
     RDKit          3D

100114  0  0  0  0  0  0  0  0999 V2000
  -14.5497   -0.1397    1.3301 C   0  0  0  0  0  0  0  0  0  0  0  0
  -14.7821    0.0226   -0.0307 C   0  0  0  0  0  0  0  0  0  0  0  0
  -13.7027    0.1239   -0.9137 C   0  0  0  0  0  0  0  0  0  0  0  0
  -12.3875    0.0670   -0.4712 C   0  0  0  0  0  0  0  0  0  0  0  0
  -11.3847    0.1696   -1.3623 N   0  0  0  0  0  0  0  0  0  0  0  0
  -10.1148    0.1136   -0.9294 C   0  0  0  0  0  0  0  0  0  0  0  0
   -9.0801    0.2179   -1.8451 C   0  0  0  0  0  0  0  0  0  0  0  0
   -7.7309    0.1670   -1.4481 C   0  0  0  0  0  0  0  0  0  0  0  0
   -6.6830    0.2733   -2.3693 C   0  0  0  0  0  0  0  0  0  0  0  0
   -5.3556    0.2212   -1.9316 C   0  0  0  0  0  0  0  0  0  0  0  0
   -4.2776    0.3286   -2.8256 C   0  0  0  0  0  0  0  0  0  0  0  0
   -2.9675    0.2765   -2.3541 C   0  0  0  0  0  0  0  0  0  0  0  0
   -2.7177    0.1142   -0.9865 C   0  0  0  0  0  0  0  0  0  0  0  0
   -1.3274    0.0632   -0.4750 C   0  0  0  0  0  0  0  0  0  0  0  0
   -0.6516   -1.1937   -0.3938 C   0  0  0  0  0  0  0  0  0  0  0  0
   -1.2684   -2.4178   -0.7714 C   0  0  0  0  0  0  0  0  0  0  0  0
   -0.6188   -3.6606   -0.7026 C   0  0  0  0  0  0  0  0  0  0  0  0
   -1.2557   -4.8542   -1.0845 C   0  0  0  0  0  0  0  0  0  0  0  0
   -0.5862   -6.0764   -1.0094 C   0  0  0  0  0  0  0  0  0  0  0  0
    0.7267   -6.1199   -0.5522 C   0  0  0  0  0  0  0  0  0  0  0  0
    1.3683   -4.9414   -0.1691 C   0  0  0  0  0  0  0  0  0  0  0  0
    0.7022   -3.7050   -0.2394 C   0  0  0  0  0  0  0  0  0  0  0  0
    1.3224   -2.5053    0.1425 C   0  0  0  0  0  0  0  0  0  0  0  0
    0.6790   -1.2389    0.0788 C   0  0  0  0  0  0  0  0  0  0  0  0
    1.3279   -0.0277    0.4736 C   0  0  0  0  0  0  0  0  0  0  0  0
    2.7170   -0.0783    0.9890 C   0  0  0  0  0  0  0  0  0  0  0  0
    3.8137   -0.0025    0.1120 C   0  0  0  0  0  0  0  0  0  0  0  0
    5.1261   -0.0525    0.5628 C   0  0  0  0  0  0  0  0  0  0  0  0
    6.1320    0.0188   -0.3264 N   0  0  0  0  0  0  0  0  0  0  0  0
    7.4010   -0.0288    0.1115 C   0  0  0  0  0  0  0  0  0  0  0  0
    8.4396    0.0434   -0.8027 C   0  0  0  0  0  0  0  0  0  0  0  0
    9.7871   -0.0025   -0.3989 C   0  0  0  0  0  0  0  0  0  0  0  0
   10.8392    0.0699   -1.3186 C   0  0  0  0  0  0  0  0  0  0  0  0
   12.1647    0.0193   -0.8743 C   0  0  0  0  0  0  0  0  0  0  0  0
   13.2499    0.0880   -1.7664 C   0  0  0  0  0  0  0  0  0  0  0  0
   14.5572    0.0337   -1.2885 C   0  0  0  0  0  0  0  0  0  0  0  0
   14.7836   -0.0885    0.0775 C   0  0  0  0  0  0  0  0  0  0  0  0
   13.7008   -0.1559    0.9593 C   0  0  0  0  0  0  0  0  0  0  0  0
   12.3880   -0.1045    0.5102 C   0  0  0  0  0  0  0  0  0  0  0  0
   11.3824   -0.1739    1.4005 N   0  0  0  0  0  0  0  0  0  0  0  0
   10.1139   -0.1247    0.9611 C   0  0  0  0  0  0  0  0  0  0  0  0
    9.0751   -0.1969    1.8750 C   0  0  0  0  0  0  0  0  0  0  0  0
    7.7278   -0.1512    1.4711 C   0  0  0  0  0  0  0  0  0  0  0  0
    6.6760   -0.2256    2.3907 C   0  0  0  0  0  0  0  0  0  0  0  0
    5.3508   -0.1780    1.9463 C   0  0  0  0  0  0  0  0  0  0  0  0
    4.2694   -0.2530    2.8390 C   0  0  0  0  0  0  0  0  0  0  0  0
    2.9617   -0.2053    2.3614 C   0  0  0  0  0  0  0  0  0  0  0  0
    0.6521    1.2294    0.3914 C   0  0  0  0  0  0  0  0  0  0  0  0
    1.2687    2.4540    0.7675 C   0  0  0  0  0  0  0  0  0  0  0  0
    0.6180    3.6961    0.7016 C   0  0  0  0  0  0  0  0  0  0  0  0
    1.2550    4.8897    1.0830 C   0  0  0  0  0  0  0  0  0  0  0  0
    0.5839    6.1112    1.0121 C   0  0  0  0  0  0  0  0  0  0  0  0
   -0.7312    6.1545    0.5600 C   0  0  0  0  0  0  0  0  0  0  0  0
   -1.3722    4.9755    0.1769 C   0  0  0  0  0  0  0  0  0  0  0  0
   -0.7043    3.7398    0.2430 C   0  0  0  0  0  0  0  0  0  0  0  0
   -1.3241    2.5400   -0.1388 C   0  0  0  0  0  0  0  0  0  0  0  0
   -0.6789    1.2743   -0.0794 C   0  0  0  0  0  0  0  0  0  0  0  0
   -3.8108    0.0063   -0.1083 C   0  0  0  0  0  0  0  0  0  0  0  0
   -5.1250    0.0581   -0.5530 C   0  0  0  0  0  0  0  0  0  0  0  0
   -6.1270   -0.0461    0.3374 N   0  0  0  0  0  0  0  0  0  0  0  0
   -7.3981    0.0067   -0.0940 C   0  0  0  0  0  0  0  0  0  0  0  0
   -8.4327   -0.0991    0.8216 C   0  0  0  0  0  0  0  0  0  0  0  0
   -9.7822   -0.0479    0.4248 C   0  0  0  0  0  0  0  0  0  0  0  0
  -10.8307   -0.1536    1.3457 C   0  0  0  0  0  0  0  0  0  0  0  0
  -12.1584   -0.0974    0.9080 C   0  0  0  0  0  0  0  0  0  0  0  0
  -13.2401   -0.1999    1.8014 C   0  0  0  0  0  0  0  0  0  0  0  0
  -15.3843   -0.2191    2.0219 H   0  0  0  0  0  0  0  0  0  0  0  0
  -15.7992    0.0710   -0.4109 H   0  0  0  0  0  0  0  0  0  0  0  0
  -13.8920    0.2507   -1.9770 H   0  0  0  0  0  0  0  0  0  0  0  0
   -9.3367    0.3427   -2.8950 H   0  0  0  0  0  0  0  0  0  0  0  0
   -6.9012    0.3979   -3.4275 H   0  0  0  0  0  0  0  0  0  0  0  0
   -4.4514    0.4560   -3.8916 H   0  0  0  0  0  0  0  0  0  0  0  0
   -2.1391    0.3646   -3.0549 H   0  0  0  0  0  0  0  0  0  0  0  0
   -2.2959   -2.4131   -1.1333 H   0  0  0  0  0  0  0  0  0  0  0  0
   -2.2822   -4.8381   -1.4441 H   0  0  0  0  0  0  0  0  0  0  0  0
   -1.0909   -6.9911   -1.3080 H   0  0  0  0  0  0  0  0  0  0  0  0
    1.2530   -7.0692   -0.4934 H   0  0  0  0  0  0  0  0  0  0  0  0
    2.3959   -4.9933    0.1851 H   0  0  0  0  0  0  0  0  0  0  0  0
    2.3486   -2.5693    0.5016 H   0  0  0  0  0  0  0  0  0  0  0  0
    3.6378    0.0959   -0.9580 H   0  0  0  0  0  0  0  0  0  0  0  0
    8.1880    0.1370   -1.8572 H   0  0  0  0  0  0  0  0  0  0  0  0
   10.6269    0.1654   -2.3811 H   0  0  0  0  0  0  0  0  0  0  0  0
   13.0809    0.1841   -2.8364 H   0  0  0  0  0  0  0  0  0  0  0  0
   15.3949    0.0869   -1.9792 H   0  0  0  0  0  0  0  0  0  0  0  0
   15.7988   -0.1317    0.4630 H   0  0  0  0  0  0  0  0  0  0  0  0
   13.8860   -0.2512    2.0266 H   0  0  0  0  0  0  0  0  0  0  0  0
    9.3269   -0.2918    2.9293 H   0  0  0  0  0  0  0  0  0  0  0  0
    6.8899   -0.3218    3.4528 H   0  0  0  0  0  0  0  0  0  0  0  0
    4.4384   -0.3491    3.9090 H   0  0  0  0  0  0  0  0  0  0  0  0
    2.1301   -0.2664    3.0614 H   0  0  0  0  0  0  0  0  0  0  0  0
    2.2966    2.4503    1.1267 H   0  0  0  0  0  0  0  0  0  0  0  0
    2.2828    4.8738    1.4388 H   0  0  0  0  0  0  0  0  0  0  0  0
    1.0896    7.0255    1.3101 H   0  0  0  0  0  0  0  0  0  0  0  0
   -1.2581    7.1036    0.5047 H   0  0  0  0  0  0  0  0  0  0  0  0
   -2.4004    5.0248   -0.1745 H   0  0  0  0  0  0  0  0  0  0  0  0
   -2.3521    2.6033   -0.4931 H   0  0  0  0  0  0  0  0  0  0  0  0
   -3.6301   -0.1193    0.9581 H   0  0  0  0  0  0  0  0  0  0  0  0
   -8.1759   -0.2227    1.8717 H   0  0  0  0  0  0  0  0  0  0  0  0
  -10.6132   -0.2799    2.4039 H   0  0  0  0  0  0  0  0  0  0  0  0
  -13.0662   -0.3270    2.8674 H   0  0  0  0  0  0  0  0  0  0  0  0
  1  2  4  0
  2  3  4  0
  3  4  4  0
  4  5  4  0
  5  6  4  0
  6  7  4  0
  7  8  4  0
  8  9  4  0
  9 10  4  0
 10 11  4  0
 11 12  4  0
 12 13  4  0
 13 14  1  0
 14 15  4  0
 15 16  4  0
 16 17  4  0
 17 18  4  0
 18 19  4  0
 19 20  4  0
 20 21  4  0
 21 22  4  0
 22 23  4  0
 23 24  4  0
 24 25  4  0
 25 26  1  0
 26 27  4  0
 27 28  4  0
 28 29  4  0
 29 30  4  0
 30 31  4  0
 31 32  4  0
 32 33  4  0
 33 34  4  0
 34 35  4  0
 35 36  4  0
 36 37  4  0
 37 38  4  0
 38 39  4  0
 39 40  4  0
 40 41  4  0
 41 42  4  0
 42 43  4  0
 43 44  4  0
 44 45  4  0
 45 46  4  0
 46 47  4  0
 25 48  4  0
 48 49  4  0
 49 50  4  0
 50 51  4  0
 51 52  4  0
 52 53  4  0
 53 54  4  0
 54 55  4  0
 55 56  4  0
 56 57  4  0
 13 58  4  0
 58 59  4  0
 59 60  4  0
 60 61  4  0
 61 62  4  0
 62 63  4  0
 63 64  4  0
 64 65  4  0
 65 66  4  0
 66  1  4  0
 65  4  4  0
 63  6  4  0
 61  8  4  0
 59 10  4  0
 57 14  4  0
 24 15  4  0
 47 26  4  0
 57 48  4  0
 22 17  4  0
 45 28  4  0
 55 50  4  0
 43 30  4  0
 41 32  4  0
 39 34  4  0
  1 67  1  0
  2 68  1  0
  3 69  1  0
  7 70  1  0
  9 71  1  0
 11 72  1  0
 12 73  1  0
 16 74  1  0
 18 75  1  0
 19 76  1  0
 20 77  1  0
 21 78  1  0
 23 79  1  0
 27 80  1  0
 31 81  1  0
 33 82  1  0
 35 83  1  0
 36 84  1  0
 37 85  1  0
 38 86  1  0
 42 87  1  0
 44 88  1  0
 46 89  1  0
 47 90  1  0
 49 91  1  0
 51 92  1  0
 52 93  1  0
 53 94  1  0
 54 95  1  0
 56 96  1  0
 58 97  1  0
 62 98  1  0
 64 99  1  0
 66100  1  0
M  END
