
     RDKit          3D

100114  0  0  0  0  0  0  0  0999 V2000
   11.8963   -0.9689    2.5514 C   0  0  0  0  0  0  0  0  0  0  0  0
   11.3879   -0.7022    1.2821 C   0  0  0  0  0  0  0  0  0  0  0  0
    9.9989   -0.6178    1.0767 C   0  0  0  0  0  0  0  0  0  0  0  0
    9.4535   -0.3528   -0.1841 C   0  0  0  0  0  0  0  0  0  0  0  0
    8.0657   -0.2787   -0.3479 C   0  0  0  0  0  0  0  0  0  0  0  0
    7.4755   -0.0174   -1.5990 C   0  0  0  0  0  0  0  0  0  0  0  0
    6.1005    0.0508   -1.7573 C   0  0  0  0  0  0  0  0  0  0  0  0
    5.5832    0.2971   -2.9717 N   0  0  0  0  0  0  0  0  0  0  0  0
    4.2479    0.3517   -3.1222 C   0  0  0  0  0  0  0  0  0  0  0  0
    3.7428    0.5982   -4.3903 C   0  0  0  0  0  0  0  0  0  0  0  0
    2.3726    0.6707   -4.6396 C   0  0  0  0  0  0  0  0  0  0  0  0
    1.4744    0.4945   -3.5955 C   0  0  0  0  0  0  0  0  0  0  0  0
    1.9383    0.2453   -2.2927 C   0  0  0  0  0  0  0  0  0  0  0  0
    0.9404    0.0793   -1.1997 C   0  0  0  0  0  0  0  0  0  0  0  0
    0.4995    1.2292   -0.4726 C   0  0  0  0  0  0  0  0  0  0  0  0
    0.9681    2.5401   -0.7602 C   0  0  0  0  0  0  0  0  0  0  0  0
    0.5434    3.6802   -0.0605 C   0  0  0  0  0  0  0  0  0  0  0  0
    1.0205    4.9647   -0.3744 C   0  0  0  0  0  0  0  0  0  0  0  0
    0.5789    6.0830    0.3337 C   0  0  0  0  0  0  0  0  0  0  0  0
   -0.3416    5.9299    1.3651 C   0  0  0  0  0  0  0  0  0  0  0  0
   -0.8203    4.6590    1.6860 C   0  0  0  0  0  0  0  0  0  0  0  0
   -0.3833    3.5260    0.9777 C   0  0  0  0  0  0  0  0  0  0  0  0
   -0.8499    2.2371    1.2785 C   0  0  0  0  0  0  0  0  0  0  0  0
   -0.4340    1.0736    0.5754 C   0  0  0  0  0  0  0  0  0  0  0  0
   -0.9273   -0.2309    0.8903 C   0  0  0  0  0  0  0  0  0  0  0  0
   -1.9080   -0.3950    1.9986 C   0  0  0  0  0  0  0  0  0  0  0  0
   -3.3144   -0.2637    1.7971 C   0  0  0  0  0  0  0  0  0  0  0  0
   -3.9057    0.0288    0.5522 C   0  0  0  0  0  0  0  0  0  0  0  0
   -5.2932    0.1582    0.4258 C   0  0  0  0  0  0  0  0  0  0  0  0
   -5.9069    0.4622   -0.8043 C   0  0  0  0  0  0  0  0  0  0  0  0
   -7.2813    0.5934   -0.9213 C   0  0  0  0  0  0  0  0  0  0  0  0
   -7.8184    0.8881   -2.1171 N   0  0  0  0  0  0  0  0  0  0  0  0
   -9.1529    1.0130   -2.2242 C   0  0  0  0  0  0  0  0  0  0  0  0
   -9.7127    1.3158   -3.4582 C   0  0  0  0  0  0  0  0  0  0  0  0
  -11.0935    1.4564   -3.6259 C   0  0  0  0  0  0  0  0  0  0  0  0
  -11.9428    1.2916   -2.5380 C   0  0  0  0  0  0  0  0  0  0  0  0
  -11.4083    0.9874   -1.2882 C   0  0  0  0  0  0  0  0  0  0  0  0
  -10.0182    0.8475   -1.1261 C   0  0  0  0  0  0  0  0  0  0  0  0
   -9.4466    0.5428    0.1135 C   0  0  0  0  0  0  0  0  0  0  0  0
   -8.0590    0.4105    0.2331 C   0  0  0  0  0  0  0  0  0  0  0  0
   -7.4440    0.1060    1.4617 C   0  0  0  0  0  0  0  0  0  0  0  0
   -6.0694   -0.0220    1.5773 C   0  0  0  0  0  0  0  0  0  0  0  0
   -5.5305   -0.3066    2.7731 N   0  0  0  0  0  0  0  0  0  0  0  0
   -4.1966   -0.4230    2.8855 C   0  0  0  0  0  0  0  0  0  0  0  0
   -3.6713   -0.7100    4.1365 C   0  0  0  0  0  0  0  0  0  0  0  0
   -2.2998   -0.8411    4.3497 C   0  0  0  0  0  0  0  0  0  0  0  0
   -1.4223   -0.6825    3.2857 C   0  0  0  0  0  0  0  0  0  0  0  0
   -0.4923   -1.3798    0.1589 C   0  0  0  0  0  0  0  0  0  0  0  0
   -0.9682   -2.6892    0.4417 C   0  0  0  0  0  0  0  0  0  0  0  0
   -0.5494   -3.8293   -0.2617 C   0  0  0  0  0  0  0  0  0  0  0  0
   -1.0369   -5.1123    0.0443 C   0  0  0  0  0  0  0  0  0  0  0  0
   -0.6045   -6.2295   -0.6713 C   0  0  0  0  0  0  0  0  0  0  0  0
    0.3203   -6.0783   -1.6992 C   0  0  0  0  0  0  0  0  0  0  0  0
    0.8114   -4.8092   -2.0101 C   0  0  0  0  0  0  0  0  0  0  0  0
    0.3817   -3.6763   -1.2967 C   0  0  0  0  0  0  0  0  0  0  0  0
    0.8585   -2.3887   -1.5904 C   0  0  0  0  0  0  0  0  0  0  0  0
    0.4438   -1.2247   -0.8875 C   0  0  0  0  0  0  0  0  0  0  0  0
    3.3436    0.1702   -2.0554 C   0  0  0  0  0  0  0  0  0  0  0  0
    3.9123   -0.0802   -0.7916 C   0  0  0  0  0  0  0  0  0  0  0  0
    5.2994   -0.1469   -0.6256 C   0  0  0  0  0  0  0  0  0  0  0  0
    5.8872   -0.4054    0.6267 C   0  0  0  0  0  0  0  0  0  0  0  0
    7.2614   -0.4766    0.7858 C   0  0  0  0  0  0  0  0  0  0  0  0
    7.7727   -0.7305    2.0019 N   0  0  0  0  0  0  0  0  0  0  0  0
    9.1078   -0.8014    2.1510 C   0  0  0  0  0  0  0  0  0  0  0  0
    9.6417   -1.0656    3.4055 C   0  0  0  0  0  0  0  0  0  0  0  0
   11.0214   -1.1511    3.6161 C   0  0  0  0  0  0  0  0  0  0  0  0
   12.9699   -1.0343    2.7082 H   0  0  0  0  0  0  0  0  0  0  0  0
   12.0783   -0.5610    0.4537 H   0  0  0  0  0  0  0  0  0  0  0  0
   10.1095   -0.2054   -1.0389 H   0  0  0  0  0  0  0  0  0  0  0  0
    8.1008    0.1350   -2.4762 H   0  0  0  0  0  0  0  0  0  0  0  0
    4.4412    0.7377   -5.2130 H   0  0  0  0  0  0  0  0  0  0  0  0
    2.0123    0.8664   -5.6461 H   0  0  0  0  0  0  0  0  0  0  0  0
    0.4056    0.5551   -3.7936 H   0  0  0  0  0  0  0  0  0  0  0  0
    1.6915    2.6905   -1.5606 H   0  0  0  0  0  0  0  0  0  0  0  0
    1.7421    5.1011   -1.1767 H   0  0  0  0  0  0  0  0  0  0  0  0
    0.9538    7.0708    0.0795 H   0  0  0  0  0  0  0  0  0  0  0  0
   -0.6880    6.7976    1.9200 H   0  0  0  0  0  0  0  0  0  0  0  0
   -1.5410    4.5574    2.4946 H   0  0  0  0  0  0  0  0  0  0  0  0
   -1.5686    2.1470    2.0921 H   0  0  0  0  0  0  0  0  0  0  0  0
   -3.2822    0.1635   -0.3295 H   0  0  0  0  0  0  0  0  0  0  0  0
   -5.2999    0.6033   -1.6964 H   0  0  0  0  0  0  0  0  0  0  0  0
   -9.0543    1.4464   -4.3139 H   0  0  0  0  0  0  0  0  0  0  0  0
  -11.4982    1.6939   -4.6061 H   0  0  0  0  0  0  0  0  0  0  0  0
  -13.0171    1.3993   -2.6613 H   0  0  0  0  0  0  0  0  0  0  0  0
  -12.0796    0.8598   -0.4420 H   0  0  0  0  0  0  0  0  0  0  0  0
  -10.0817    0.4088    0.9860 H   0  0  0  0  0  0  0  0  0  0  0  0
   -8.0484   -0.0335    2.3554 H   0  0  0  0  0  0  0  0  0  0  0  0
   -4.3537   -0.8328    4.9751 H   0  0  0  0  0  0  0  0  0  0  0  0
   -1.9223   -1.0639    5.3441 H   0  0  0  0  0  0  0  0  0  0  0  0
   -0.3513   -0.7828    3.4558 H   0  0  0  0  0  0  0  0  0  0  0  0
   -1.6959   -2.8376    1.2387 H   0  0  0  0  0  0  0  0  0  0  0  0
   -1.7601   -5.2506    0.8453 H   0  0  0  0  0  0  0  0  0  0  0  0
   -0.9906   -7.2152   -0.4246 H   0  0  0  0  0  0  0  0  0  0  0  0
    0.6607   -6.9463   -2.2582 H   0  0  0  0  0  0  0  0  0  0  0  0
    1.5359   -4.7085   -2.8156 H   0  0  0  0  0  0  0  0  0  0  0  0
    1.5820   -2.2989   -2.3997 H   0  0  0  0  0  0  0  0  0  0  0  0
    3.2718   -0.2300    0.0754 H   0  0  0  0  0  0  0  0  0  0  0  0
    5.2606   -0.5584    1.5031 H   0  0  0  0  0  0  0  0  0  0  0  0
    8.9629   -1.2094    4.2429 H   0  0  0  0  0  0  0  0  0  0  0  0
   11.4055   -1.3600    4.6113 H   0  0  0  0  0  0  0  0  0  0  0  0
  1  2  4  0
  2  3  4  0
  3  4  4  0
  4  5  4  0
  5  6  4  0
  6  7  4  0
  7  8  4  0
  8  9  4  0
  9 10  4  0
 10 11  4  0
 11 12  4  0
 12 13  4  0
 13 14  1  0
 14 15  4  0
 15 16  4  0
 16 17  4  0
 17 18  4  0
 18 19  4  0
 19 20  4  0
 20 21  4  0
 21 22  4  0
 22 23  4  0
 23 24  4  0
 24 25  4  0
 25 26  1  0
 26 27  4  0
 27 28  4  0
 28 29  4  0
 29 30  4  0
 30 31  4  0
 31 32  4  0
 32 33  4  0
 33 34  4  0
 34 35  4  0
 35 36  4  0
 36 37  4  0
 37 38  4  0
 38 39  4  0
 39 40  4  0
 40 41  4  0
 41 42  4  0
 42 43  4  0
 43 44  4  0
 44 45  4  0
 45 46  4  0
 46 47  4  0
 25 48  4  0
 48 49  4  0
 49 50  4  0
 50 51  4  0
 51 52  4  0
 52 53  4  0
 53 54  4  0
 54 55  4  0
 55 56  4  0
 56 57  4  0
 13 58  4  0
 58 59  4  0
 59 60  4  0
 60 61  4  0
 61 62  4  0
 62 63  4  0
 63 64  4  0
 64 65  4  0
 65 66  4  0
 66  1  4  0
 64  3  4  0
 62  5  4  0
 60  7  4  0
 58  9  4  0
 57 14  4  0
 24 15  4  0
 47 26  4  0
 57 48  4  0
 22 17  4  0
 44 27  4  0
 55 50  4  0
 42 29  4  0
 40 31  4  0
 38 33  4  0
  1 67  1  0
  2 68  1  0
  4 69  1  0
  6 70  1  0
 10 71  1  0
 11 72  1  0
 12 73  1  0
 16 74  1  0
 18 75  1  0
 19 76  1  0
 20 77  1  0
 21 78  1  0
 23 79  1  0
 28 80  1  0
 30 81  1  0
 34 82  1  0
 35 83  1  0
 36 84  1  0
 37 85  1  0
 39 86  1  0
 41 87  1  0
 45 88  1  0
 46 89  1  0
 47 90  1  0
 49 91  1  0
 51 92  1  0
 52 93  1  0
 53 94  1  0
 54 95  1  0
 56 96  1  0
 59 97  1  0
 61 98  1  0
 65 99  1  0
 66100  1  0
M  END
