
     RDKit          3D

100114  0  0  0  0  0  0  0  0999 V2000
   13.5611    3.4051    1.3839 C   0  0  0  0  0  0  0  0  0  0  0  0
   12.1718    3.4945    1.4348 C   0  0  0  0  0  0  0  0  0  0  0  0
   11.3743    2.4428    0.9488 C   0  0  0  0  0  0  0  0  0  0  0  0
    9.9769    2.4984    0.9843 C   0  0  0  0  0  0  0  0  0  0  0  0
    9.2189    1.4306    0.4912 C   0  0  0  0  0  0  0  0  0  0  0  0
    7.8116    1.4442    0.5096 C   0  0  0  0  0  0  0  0  0  0  0  0
    7.0651    0.3831    0.0235 C   0  0  0  0  0  0  0  0  0  0  0  0
    5.7237    0.4440    0.0691 N   0  0  0  0  0  0  0  0  0  0  0  0
    5.0011   -0.5911   -0.3948 C   0  0  0  0  0  0  0  0  0  0  0  0
    3.6142   -0.5358   -0.3378 C   0  0  0  0  0  0  0  0  0  0  0  0
    2.8027   -1.5852   -0.8046 C   0  0  0  0  0  0  0  0  0  0  0  0
    1.3245   -1.4991   -0.7249 C   0  0  0  0  0  0  0  0  0  0  0  0
    0.6511   -1.9960    0.4350 C   0  0  0  0  0  0  0  0  0  0  0  0
    1.3467   -2.5508    1.5445 C   0  0  0  0  0  0  0  0  0  0  0  0
    0.7009   -3.0535    2.6860 C   0  0  0  0  0  0  0  0  0  0  0  0
    1.4161   -3.6031    3.7649 C   0  0  0  0  0  0  0  0  0  0  0  0
    0.7493   -4.0988    4.8865 C   0  0  0  0  0  0  0  0  0  0  0  0
   -0.6393   -4.0483    4.9445 C   0  0  0  0  0  0  0  0  0  0  0  0
   -1.3595   -3.5025    3.8809 C   0  0  0  0  0  0  0  0  0  0  0  0
   -0.6975   -3.0031    2.7450 C   0  0  0  0  0  0  0  0  0  0  0  0
   -1.3981   -2.4522    1.6605 C   0  0  0  0  0  0  0  0  0  0  0  0
   -0.7597   -1.9461    0.4952 C   0  0  0  0  0  0  0  0  0  0  0  0
   -1.4926   -1.4005   -0.6039 C   0  0  0  0  0  0  0  0  0  0  0  0
   -2.9739   -1.3781   -0.5561 C   0  0  0  0  0  0  0  0  0  0  0  0
   -3.7164   -2.4697   -1.0223 C   0  0  0  0  0  0  0  0  0  0  0  0
   -5.1085   -2.4410   -0.9781 C   0  0  0  0  0  0  0  0  0  0  0  0
   -5.7756   -1.3152   -0.4686 C   0  0  0  0  0  0  0  0  0  0  0  0
   -7.1713   -1.2509   -0.4109 C   0  0  0  0  0  0  0  0  0  0  0  0
   -7.8005   -0.1109    0.1009 C   0  0  0  0  0  0  0  0  0  0  0  0
   -9.2015   -0.0042    0.1765 C   0  0  0  0  0  0  0  0  0  0  0  0
   -9.8203    1.1266    0.6839 C   0  0  0  0  0  0  0  0  0  0  0  0
  -11.1613    1.1763    0.7329 N   0  0  0  0  0  0  0  0  0  0  0  0
  -11.7600    2.2752    1.2267 C   0  0  0  0  0  0  0  0  0  0  0  0
  -13.1465    2.3316    1.2800 C   0  0  0  0  0  0  0  0  0  0  0  0
  -13.8194    3.4491    1.7834 C   0  0  0  0  0  0  0  0  0  0  0  0
  -13.0956    4.5415    2.2469 C   0  0  0  0  0  0  0  0  0  0  0  0
  -11.7035    4.5117    2.2051 C   0  0  0  0  0  0  0  0  0  0  0  0
  -11.0324    3.3847    1.6976 C   0  0  0  0  0  0  0  0  0  0  0  0
   -9.6361    3.3203    1.6404 C   0  0  0  0  0  0  0  0  0  0  0  0
   -9.0062    2.1805    1.1284 C   0  0  0  0  0  0  0  0  0  0  0  0
   -7.6050    2.0737    1.0525 C   0  0  0  0  0  0  0  0  0  0  0  0
   -6.9863    0.9429    0.5446 C   0  0  0  0  0  0  0  0  0  0  0  0
   -5.6451    0.8918    0.4942 N   0  0  0  0  0  0  0  0  0  0  0  0
   -5.0472   -0.2071    0.0024 C   0  0  0  0  0  0  0  0  0  0  0  0
   -3.6610   -0.2614   -0.0486 C   0  0  0  0  0  0  0  0  0  0  0  0
   -0.8189   -0.8914   -1.7571 C   0  0  0  0  0  0  0  0  0  0  0  0
   -1.5170   -0.3343   -2.8633 C   0  0  0  0  0  0  0  0  0  0  0  0
   -0.8754    0.1670   -4.0060 C   0  0  0  0  0  0  0  0  0  0  0  0
   -1.5960    0.7136   -5.0825 C   0  0  0  0  0  0  0  0  0  0  0  0
   -0.9334    1.2048   -6.2081 C   0  0  0  0  0  0  0  0  0  0  0  0
    0.4556    1.1562   -6.2697 C   0  0  0  0  0  0  0  0  0  0  0  0
    1.1797    0.6170   -5.2055 C   0  0  0  0  0  0  0  0  0  0  0  0
    0.5225    0.1186   -4.0671 C   0  0  0  0  0  0  0  0  0  0  0  0
    1.2266   -0.4286   -2.9827 C   0  0  0  0  0  0  0  0  0  0  0  0
    0.5915   -0.9403   -1.8180 C   0  0  0  0  0  0  0  0  0  0  0  0
    3.4183   -2.7189   -1.3483 C   0  0  0  0  0  0  0  0  0  0  0  0
    4.8075   -2.7988   -1.4162 C   0  0  0  0  0  0  0  0  0  0  0  0
    5.5998   -1.7421   -0.9398 C   0  0  0  0  0  0  0  0  0  0  0  0
    6.9967   -1.7926   -0.9860 C   0  0  0  0  0  0  0  0  0  0  0  0
    7.7545   -0.7225   -0.4983 C   0  0  0  0  0  0  0  0  0  0  0  0
    9.1617   -0.7354   -0.5189 C   0  0  0  0  0  0  0  0  0  0  0  0
    9.9084    0.3246   -0.0306 C   0  0  0  0  0  0  0  0  0  0  0  0
   11.2492    0.2590   -0.0707 N   0  0  0  0  0  0  0  0  0  0  0  0
   11.9713    1.2890    0.4060 C   0  0  0  0  0  0  0  0  0  0  0  0
   13.3579    1.2262    0.3675 C   0  0  0  0  0  0  0  0  0  0  0  0
   14.1559    2.2684    0.8490 C   0  0  0  0  0  0  0  0  0  0  0  0
   14.1759    4.2188    1.7599 H   0  0  0  0  0  0  0  0  0  0  0  0
   11.7136    4.3870    1.8547 H   0  0  0  0  0  0  0  0  0  0  0  0
    9.4789    3.3729    1.3967 H   0  0  0  0  0  0  0  0  0  0  0  0
    7.2783    2.3022    0.9140 H   0  0  0  0  0  0  0  0  0  0  0  0
    3.1493    0.3530    0.0860 H   0  0  0  0  0  0  0  0  0  0  0  0
    2.4349   -2.5963    1.5280 H   0  0  0  0  0  0  0  0  0  0  0  0
    2.5028   -3.6486    3.7372 H   0  0  0  0  0  0  0  0  0  0  0  0
    1.3142   -4.5225    5.7131 H   0  0  0  0  0  0  0  0  0  0  0  0
   -1.1623   -4.4321    5.8166 H   0  0  0  0  0  0  0  0  0  0  0  0
   -2.4453   -3.4680    3.9430 H   0  0  0  0  0  0  0  0  0  0  0  0
   -2.4842   -2.4193    1.7355 H   0  0  0  0  0  0  0  0  0  0  0  0
   -3.2076   -3.3450   -1.4223 H   0  0  0  0  0  0  0  0  0  0  0  0
   -5.6676   -3.2988   -1.3448 H   0  0  0  0  0  0  0  0  0  0  0  0
   -7.7686   -2.0882   -0.7644 H   0  0  0  0  0  0  0  0  0  0  0  0
   -9.8316   -0.8215   -0.1680 H   0  0  0  0  0  0  0  0  0  0  0  0
  -13.7188    1.4803    0.9190 H   0  0  0  0  0  0  0  0  0  0  0  0
  -14.9059    3.4601    1.8106 H   0  0  0  0  0  0  0  0  0  0  0  0
  -13.6121    5.4134    2.6394 H   0  0  0  0  0  0  0  0  0  0  0  0
  -11.1442    5.3704    2.5695 H   0  0  0  0  0  0  0  0  0  0  0  0
   -9.0393    4.1575    1.9948 H   0  0  0  0  0  0  0  0  0  0  0  0
   -6.9748    2.8913    1.3961 H   0  0  0  0  0  0  0  0  0  0  0  0
   -3.0961    0.5952    0.3160 H   0  0  0  0  0  0  0  0  0  0  0  0
   -2.6047   -0.2822   -2.8420 H   0  0  0  0  0  0  0  0  0  0  0  0
   -2.6823    0.7606   -5.0479 H   0  0  0  0  0  0  0  0  0  0  0  0
   -1.5020    1.6253   -7.0330 H   0  0  0  0  0  0  0  0  0  0  0  0
    0.9767    1.5380   -7.1433 H   0  0  0  0  0  0  0  0  0  0  0  0
    2.2651    0.5887   -5.2678 H   0  0  0  0  0  0  0  0  0  0  0  0
    2.3131   -0.4505   -3.0557 H   0  0  0  0  0  0  0  0  0  0  0  0
    2.8129   -3.5437   -1.7196 H   0  0  0  0  0  0  0  0  0  0  0  0
    5.2662   -3.6884   -1.8414 H   0  0  0  0  0  0  0  0  0  0  0  0
    7.4950   -2.6671   -1.3982 H   0  0  0  0  0  0  0  0  0  0  0  0
    9.6947   -1.5934   -0.9233 H   0  0  0  0  0  0  0  0  0  0  0  0
   13.8308    0.3401   -0.0496 H   0  0  0  0  0  0  0  0  0  0  0  0
   15.2386    2.1862    0.8035 H   0  0  0  0  0  0  0  0  0  0  0  0
  1  2  4  0
  2  3  4  0
  3  4  4  0
  4  5  4  0
  5  6  4  0
  6  7  4  0
  7  8  4  0
  8  9  4  0
  9 10  4  0
 10 11  4  0
 11 12  1  0
 12 13  4  0
 13 14  4  0
 14 15  4  0
 15 16  4  0
 16 17  4  0
 17 18  4  0
 18 19  4  0
 19 20  4  0
 20 21  4  0
 21 22  4  0
 22 23  4  0
 23 24  1  0
 24 25  4  0
 25 26  4  0
 26 27  4  0
 27 28  4  0
 28 29  4  0
 29 30  4  0
 30 31  4  0
 31 32  4  0
 32 33  4  0
 33 34  4  0
 34 35  4  0
 35 36  4  0
 36 37  4  0
 37 38  4  0
 38 39  4  0
 39 40  4  0
 40 41  4  0
 41 42  4  0
 42 43  4  0
 43 44  4  0
 44 45  4  0
 23 46  4  0
 46 47  4  0
 47 48  4  0
 48 49  4  0
 49 50  4  0
 50 51  4  0
 51 52  4  0
 52 53  4  0
 53 54  4  0
 54 55  4  0
 11 56  4  0
 56 57  4  0
 57 58  4  0
 58 59  4  0
 59 60  4  0
 60 61  4  0
 61 62  4  0
 62 63  4  0
 63 64  4  0
 64 65  4  0
 65 66  4  0
 66  1  4  0
 64  3  4  0
 62  5  4  0
 60  7  4  0
 58  9  4  0
 55 12  4  0
 22 13  4  0
 45 24  4  0
 55 46  4  0
 20 15  4  0
 44 27  4  0
 53 48  4  0
 42 29  4  0
 40 31  4  0
 38 33  4  0
  1 67  1  0
  2 68  1  0
  4 69  1  0
  6 70  1  0
 10 71  1  0
 14 72  1  0
 16 73  1  0
 17 74  1  0
 18 75  1  0
 19 76  1  0
 21 77  1  0
 25 78  1  0
 26 79  1  0
 28 80  1  0
 30 81  1  0
 34 82  1  0
 35 83  1  0
 36 84  1  0
 37 85  1  0
 39 86  1  0
 41 87  1  0
 45 88  1  0
 47 89  1  0
 49 90  1  0
 50 91  1  0
 51 92  1  0
 52 93  1  0
 54 94  1  0
 56 95  1  0
 57 96  1  0
 59 97  1  0
 61 98  1  0
 65 99  1  0
 66100  1  0
M  END
