
     RDKit          3D

 96110  0  0  0  0  0  0  0  0999 V2000
   -9.6850    1.8771   -1.1043 C   0  0  0  0  0  0  0  0  0  0  0  0
  -10.2262    0.6675   -0.7089 C   0  0  0  0  0  0  0  0  0  0  0  0
   -9.3920   -0.3731   -0.2976 C   0  0  0  0  0  0  0  0  0  0  0  0
   -7.9708   -0.2063   -0.2786 C   0  0  0  0  0  0  0  0  0  0  0  0
   -7.4024    1.0294   -0.6815 C   0  0  0  0  0  0  0  0  0  0  0  0
   -8.3024    2.0503   -1.0893 C   0  0  0  0  0  0  0  0  0  0  0  0
   -5.9778    1.1949   -0.6624 C   0  0  0  0  0  0  0  0  0  0  0  0
   -5.3484    2.4023   -1.0509 C   0  0  0  0  0  0  0  0  0  0  0  0
   -3.9693    2.5656   -1.0368 C   0  0  0  0  0  0  0  0  0  0  0  0
   -3.1629    1.5180   -0.6301 C   0  0  0  0  0  0  0  0  0  0  0  0
   -3.7107    0.2877   -0.2259 C   0  0  0  0  0  0  0  0  0  0  0  0
   -5.1383    0.1237   -0.2422 C   0  0  0  0  0  0  0  0  0  0  0  0
   -5.7186   -1.1101    0.1614 C   0  0  0  0  0  0  0  0  0  0  0  0
   -4.8391   -2.1377    0.5721 C   0  0  0  0  0  0  0  0  0  0  0  0
   -3.4568   -1.9802    0.5892 C   0  0  0  0  0  0  0  0  0  0  0  0
   -2.8720   -0.7773    0.1926 C   0  0  0  0  0  0  0  0  0  0  0  0
   -1.3832   -0.6819    0.2309 C   0  0  0  0  0  0  0  0  0  0  0  0
   -0.7369   -0.2073    1.4147 C   0  0  0  0  0  0  0  0  0  0  0  0
   -1.4623    0.2003    2.5669 C   0  0  0  0  0  0  0  0  0  0  0  0
   -0.8469    0.6745    3.7355 C   0  0  0  0  0  0  0  0  0  0  0  0
   -1.5932    1.0720    4.8585 C   0  0  0  0  0  0  0  0  0  0  0  0
   -0.9575    1.5419    6.0085 C   0  0  0  0  0  0  0  0  0  0  0  0
    0.4307    1.6205    6.0490 C   0  0  0  0  0  0  0  0  0  0  0  0
    1.1811    1.2292    4.9391 C   0  0  0  0  0  0  0  0  0  0  0  0
    0.5507    0.7533    3.7759 C   0  0  0  0  0  0  0  0  0  0  0  0
    1.2811    0.3533    2.6458 C   0  0  0  0  0  0  0  0  0  0  0  0
    0.6733   -0.1313    1.4556 C   0  0  0  0  0  0  0  0  0  0  0  0
    1.4346   -0.5361    0.3142 C   0  0  0  0  0  0  0  0  0  0  0  0
    2.9249   -0.4748    0.3644 C   0  0  0  0  0  0  0  0  0  0  0  0
    3.6064   -1.5934    0.8450 C   0  0  0  0  0  0  0  0  0  0  0  0
    4.9960   -1.6012    0.9198 C   0  0  0  0  0  0  0  0  0  0  0  0
    5.7876   -0.4998    0.5216 C   0  0  0  0  0  0  0  0  0  0  0  0
    7.2200   -0.5120    0.6018 C   0  0  0  0  0  0  0  0  0  0  0  0
    7.9667   -1.6214    1.0821 C   0  0  0  0  0  0  0  0  0  0  0  0
    9.3581   -1.6207    1.1570 C   0  0  0  0  0  0  0  0  0  0  0  0
   10.0633   -0.5023    0.7518 C   0  0  0  0  0  0  0  0  0  0  0  0
    9.3848    0.6181    0.2698 C   0  0  0  0  0  0  0  0  0  0  0  0
    7.9560    0.6279    0.1879 C   0  0  0  0  0  0  0  0  0  0  0  0
    7.2881    1.7774   -0.3068 C   0  0  0  0  0  0  0  0  0  0  0  0
    8.1000    2.8755   -0.6989 C   0  0  0  0  0  0  0  0  0  0  0  0
    9.4907    2.8557   -0.6141 C   0  0  0  0  0  0  0  0  0  0  0  0
   10.1295    1.7285   -0.1307 C   0  0  0  0  0  0  0  0  0  0  0  0
    5.8561    1.7858   -0.3891 C   0  0  0  0  0  0  0  0  0  0  0  0
    5.1303    2.8992   -0.8776 C   0  0  0  0  0  0  0  0  0  0  0  0
    3.7440    2.9127   -0.9574 C   0  0  0  0  0  0  0  0  0  0  0  0
    3.0268    1.8039   -0.5457 C   0  0  0  0  0  0  0  0  0  0  0  0
    3.6730    0.6571   -0.0507 C   0  0  0  0  0  0  0  0  0  0  0  0
    5.1081    0.6474    0.0276 C   0  0  0  0  0  0  0  0  0  0  0  0
    0.7879   -1.0096   -0.8704 C   0  0  0  0  0  0  0  0  0  0  0  0
    1.5116   -1.4164   -2.0242 C   0  0  0  0  0  0  0  0  0  0  0  0
    0.8937   -1.8781   -3.1971 C   0  0  0  0  0  0  0  0  0  0  0  0
    1.6369   -2.2740   -4.3228 C   0  0  0  0  0  0  0  0  0  0  0  0
    0.9974   -2.7262   -5.4779 C   0  0  0  0  0  0  0  0  0  0  0  0
   -0.3915   -2.7867   -5.5218 C   0  0  0  0  0  0  0  0  0  0  0  0
   -1.1390   -2.3965   -4.4099 C   0  0  0  0  0  0  0  0  0  0  0  0
   -0.5046   -1.9413   -3.2409 C   0  0  0  0  0  0  0  0  0  0  0  0
   -1.2331   -1.5443   -2.1092 C   0  0  0  0  0  0  0  0  0  0  0  0
   -0.6226   -1.0789   -0.9131 C   0  0  0  0  0  0  0  0  0  0  0  0
   -7.1428   -1.2782    0.1430 C   0  0  0  0  0  0  0  0  0  0  0  0
   -7.7923   -2.4810    0.5297 C   0  0  0  0  0  0  0  0  0  0  0  0
   -9.1772   -2.6325    0.5081 C   0  0  0  0  0  0  0  0  0  0  0  0
   -9.9732   -1.5798    0.0948 C   0  0  0  0  0  0  0  0  0  0  0  0
  -10.3335    2.6882   -1.4250 H   0  0  0  0  0  0  0  0  0  0  0  0
  -11.3067    0.5449   -0.7253 H   0  0  0  0  0  0  0  0  0  0  0  0
   -7.9431    3.0233   -1.4108 H   0  0  0  0  0  0  0  0  0  0  0  0
   -5.9246    3.2613   -1.3803 H   0  0  0  0  0  0  0  0  0  0  0  0
   -3.5250    3.5089   -1.3423 H   0  0  0  0  0  0  0  0  0  0  0  0
   -2.0872    1.6819   -0.6327 H   0  0  0  0  0  0  0  0  0  0  0  0
   -5.2092   -3.1059    0.8954 H   0  0  0  0  0  0  0  0  0  0  0  0
   -2.8324   -2.8104    0.9154 H   0  0  0  0  0  0  0  0  0  0  0  0
   -2.5509    0.1541    2.5611 H   0  0  0  0  0  0  0  0  0  0  0  0
   -2.6798    1.0186    4.8421 H   0  0  0  0  0  0  0  0  0  0  0  0
   -1.5475    1.8475    6.8683 H   0  0  0  0  0  0  0  0  0  0  0  0
    0.9301    1.9876    6.9416 H   0  0  0  0  0  0  0  0  0  0  0  0
    2.2659    1.2988    4.9857 H   0  0  0  0  0  0  0  0  0  0  0  0
    2.3666    0.4293    2.7020 H   0  0  0  0  0  0  0  0  0  0  0  0
    3.0530   -2.4737    1.1679 H   0  0  0  0  0  0  0  0  0  0  0  0
    5.4443   -2.5114    1.3065 H   0  0  0  0  0  0  0  0  0  0  0  0
    7.4746   -2.5300    1.4159 H   0  0  0  0  0  0  0  0  0  0  0  0
    9.8852   -2.4943    1.5312 H   0  0  0  0  0  0  0  0  0  0  0  0
   11.1491   -0.5141    0.8152 H   0  0  0  0  0  0  0  0  0  0  0  0
    7.6620    3.7901   -1.0874 H   0  0  0  0  0  0  0  0  0  0  0  0
   10.0692    3.7212   -0.9262 H   0  0  0  0  0  0  0  0  0  0  0  0
   11.2156    1.7257   -0.0696 H   0  0  0  0  0  0  0  0  0  0  0  0
    5.6339    3.7996   -1.2155 H   0  0  0  0  0  0  0  0  0  0  0  0
    3.2250    3.7875   -1.3398 H   0  0  0  0  0  0  0  0  0  0  0  0
    1.9422    1.8509   -0.6208 H   0  0  0  0  0  0  0  0  0  0  0  0
    2.6002   -1.3710   -2.0196 H   0  0  0  0  0  0  0  0  0  0  0  0
    2.7239   -2.2300   -4.3059 H   0  0  0  0  0  0  0  0  0  0  0  0
    1.5847   -3.0277   -6.3410 H   0  0  0  0  0  0  0  0  0  0  0  0
   -0.8947   -3.1348   -6.4198 H   0  0  0  0  0  0  0  0  0  0  0  0
   -2.2245   -2.4484   -4.4605 H   0  0  0  0  0  0  0  0  0  0  0  0
   -2.3196   -1.5995   -2.1721 H   0  0  0  0  0  0  0  0  0  0  0  0
   -7.2259   -3.3455    0.8627 H   0  0  0  0  0  0  0  0  0  0  0  0
   -9.6283   -3.5725    0.8144 H   0  0  0  0  0  0  0  0  0  0  0  0
  -11.0529   -1.7106    0.0825 H   0  0  0  0  0  0  0  0  0  0  0  0
  1  2  4  0
  2  3  4  0
  3  4  4  0
  4  5  4  0
  5  6  4  0
  5  7  4  0
  7  8  4  0
  8  9  4  0
  9 10  4  0
 10 11  4  0
 11 12  4  0
 12 13  4  0
 13 14  4  0
 14 15  4  0
 15 16  4  0
 16 17  1  0
 17 18  4  0
 18 19  4  0
 19 20  4  0
 20 21  4  0
 21 22  4  0
 22 23  4  0
 23 24  4  0
 24 25  4  0
 25 26  4  0
 26 27  4  0
 27 28  4  0
 28 29  1  0
 29 30  4  0
 30 31  4  0
 31 32  4  0
 32 33  4  0
 33 34  4  0
 34 35  4  0
 35 36  4  0
 36 37  4  0
 37 38  4  0
 38 39  4  0
 39 40  4  0
 40 41  4  0
 41 42  4  0
 39 43  4  0
 43 44  4  0
 44 45  4  0
 45 46  4  0
 46 47  4  0
 47 48  4  0
 28 49  4  0
 49 50  4  0
 50 51  4  0
 51 52  4  0
 52 53  4  0
 53 54  4  0
 54 55  4  0
 55 56  4  0
 56 57  4  0
 57 58  4  0
 13 59  4  0
 59 60  4  0
 60 61  4  0
 61 62  4  0
  6  1  4  0
 12  7  4  0
 58 17  4  0
 62  3  4  0
 59  4  4  0
 16 11  4  0
 27 18  4  0
 47 29  4  0
 58 49  4  0
 25 20  4  0
 48 32  4  0
 56 51  4  0
 38 33  4  0
 48 43  4  0
 42 37  4  0
  1 63  1  0
  2 64  1  0
  6 65  1  0
  8 66  1  0
  9 67  1  0
 10 68  1  0
 14 69  1  0
 15 70  1  0
 19 71  1  0
 21 72  1  0
 22 73  1  0
 23 74  1  0
 24 75  1  0
 26 76  1  0
 30 77  1  0
 31 78  1  0
 34 79  1  0
 35 80  1  0
 36 81  1  0
 40 82  1  0
 41 83  1  0
 42 84  1  0
 44 85  1  0
 45 86  1  0
 46 87  1  0
 50 88  1  0
 52 89  1  0
 53 90  1  0
 54 91  1  0
 55 92  1  0
 57 93  1  0
 60 94  1  0
 61 95  1  0
 62 96  1  0
M  END
