
     RDKit          3D

 96110  0  0  0  0  0  0  0  0999 V2000
   -7.9133    2.9793   -0.2643 C   0  0  0  0  0  0  0  0  0  0  0  0
   -6.7935    3.6751   -0.6709 C   0  0  0  0  0  0  0  0  0  0  0  0
   -5.5449    3.0531   -0.6698 C   0  0  0  0  0  0  0  0  0  0  0  0
   -5.3880    1.6890   -0.2452 C   0  0  0  0  0  0  0  0  0  0  0  0
   -6.5370    0.9678    0.1598 C   0  0  0  0  0  0  0  0  0  0  0  0
   -7.7829    1.6543    0.1390 C   0  0  0  0  0  0  0  0  0  0  0  0
   -6.4086   -0.3950    0.5625 C   0  0  0  0  0  0  0  0  0  0  0  0
   -7.5346   -1.1761    0.9400 C   0  0  0  0  0  0  0  0  0  0  0  0
   -7.4374   -2.5019    1.3435 C   0  0  0  0  0  0  0  0  0  0  0  0
   -6.1968   -3.1007    1.3879 C   0  0  0  0  0  0  0  0  0  0  0  0
   -5.0562   -2.3821    1.0291 C   0  0  0  0  0  0  0  0  0  0  0  0
   -5.1254   -1.0138    0.5991 C   0  0  0  0  0  0  0  0  0  0  0  0
   -3.9373   -0.3031    0.2298 C   0  0  0  0  0  0  0  0  0  0  0  0
   -2.6905   -1.0427    0.3755 C   0  0  0  0  0  0  0  0  0  0  0  0
   -1.3229   -0.4867    0.1590 C   0  0  0  0  0  0  0  0  0  0  0  0
   -0.6697    0.2032    1.2310 C   0  0  0  0  0  0  0  0  0  0  0  0
   -1.2985    0.4363    2.4842 C   0  0  0  0  0  0  0  0  0  0  0  0
   -0.6732    1.1087    3.5449 C   0  0  0  0  0  0  0  0  0  0  0  0
   -1.3237    1.3257    4.7720 C   0  0  0  0  0  0  0  0  0  0  0  0
   -0.6783    1.9939    5.8130 C   0  0  0  0  0  0  0  0  0  0  0  0
    0.6239    2.4514    5.6398 C   0  0  0  0  0  0  0  0  0  0  0  0
    1.2784    2.2418    4.4253 C   0  0  0  0  0  0  0  0  0  0  0  0
    0.6367    1.5719    3.3691 C   0  0  0  0  0  0  0  0  0  0  0  0
    1.2708    1.3501    2.1368 C   0  0  0  0  0  0  0  0  0  0  0  0
    0.6481    0.6782    1.0507 C   0  0  0  0  0  0  0  0  0  0  0  0
    1.3128    0.4570   -0.1991 C   0  0  0  0  0  0  0  0  0  0  0  0
    2.6771    1.0215   -0.4166 C   0  0  0  0  0  0  0  0  0  0  0  0
    3.9309    0.2995   -0.2464 C   0  0  0  0  0  0  0  0  0  0  0  0
    4.1049   -1.0757    0.2291 C   0  0  0  0  0  0  0  0  0  0  0  0
    3.0516   -1.9183    0.6792 C   0  0  0  0  0  0  0  0  0  0  0  0
    3.2231   -3.2345    1.1091 C   0  0  0  0  0  0  0  0  0  0  0  0
    4.4835   -3.7879    1.1190 C   0  0  0  0  0  0  0  0  0  0  0  0
    5.5721   -3.0243    0.7133 C   0  0  0  0  0  0  0  0  0  0  0  0
    5.4025   -1.6661    0.2746 C   0  0  0  0  0  0  0  0  0  0  0  0
    6.5492   -0.9286   -0.1072 C   0  0  0  0  0  0  0  0  0  0  0  0
    7.8059   -1.5935   -0.0496 C   0  0  0  0  0  0  0  0  0  0  0  0
    7.9484   -2.9128    0.3679 C   0  0  0  0  0  0  0  0  0  0  0  0
    6.8306   -3.6245    0.7516 C   0  0  0  0  0  0  0  0  0  0  0  0
    6.4080    0.4285   -0.5243 C   0  0  0  0  0  0  0  0  0  0  0  0
    7.5302    1.2249   -0.8809 C   0  0  0  0  0  0  0  0  0  0  0  0
    7.4225    2.5463   -1.2958 C   0  0  0  0  0  0  0  0  0  0  0  0
    6.1739    3.1246   -1.3748 C   0  0  0  0  0  0  0  0  0  0  0  0
    5.0361    2.3900   -1.0383 C   0  0  0  0  0  0  0  0  0  0  0  0
    5.1162    1.0261   -0.5958 C   0  0  0  0  0  0  0  0  0  0  0  0
    3.8182    3.0378   -1.1562 C   0  0  0  0  0  0  0  0  0  0  0  0
    2.6561    2.3619   -0.8589 C   0  0  0  0  0  0  0  0  0  0  0  0
    0.6604   -0.2353   -1.2699 C   0  0  0  0  0  0  0  0  0  0  0  0
    1.2905   -0.4711   -2.5215 C   0  0  0  0  0  0  0  0  0  0  0  0
    0.6663   -1.1455   -3.5818 C   0  0  0  0  0  0  0  0  0  0  0  0
    1.3191   -1.3667   -4.8069 C   0  0  0  0  0  0  0  0  0  0  0  0
    0.6744   -2.0352   -5.8481 C   0  0  0  0  0  0  0  0  0  0  0  0
   -0.6292   -2.4897   -5.6771 C   0  0  0  0  0  0  0  0  0  0  0  0
   -1.2855   -2.2770   -4.4641 C   0  0  0  0  0  0  0  0  0  0  0  0
   -0.6446   -1.6066   -3.4075 C   0  0  0  0  0  0  0  0  0  0  0  0
   -1.2802   -1.3826   -2.1763 C   0  0  0  0  0  0  0  0  0  0  0  0
   -0.6576   -0.7102   -1.0901 C   0  0  0  0  0  0  0  0  0  0  0  0
   -2.6802   -2.3879    0.8027 C   0  0  0  0  0  0  0  0  0  0  0  0
   -3.8465   -3.0501    1.1140 C   0  0  0  0  0  0  0  0  0  0  0  0
   -4.1004    1.0763   -0.2363 C   0  0  0  0  0  0  0  0  0  0  0  0
   -3.0454    1.9014   -0.7132 C   0  0  0  0  0  0  0  0  0  0  0  0
   -3.2041    3.2237   -1.1290 C   0  0  0  0  0  0  0  0  0  0  0  0
   -4.4538    3.8004   -1.0987 C   0  0  0  0  0  0  0  0  0  0  0  0
   -8.8876    3.4598   -0.2608 H   0  0  0  0  0  0  0  0  0  0  0  0
   -6.9056    4.7090   -0.9896 H   0  0  0  0  0  0  0  0  0  0  0  0
   -8.7031    1.1676    0.4469 H   0  0  0  0  0  0  0  0  0  0  0  0
   -8.5398   -0.7661    0.9263 H   0  0  0  0  0  0  0  0  0  0  0  0
   -8.3281   -3.0573    1.6234 H   0  0  0  0  0  0  0  0  0  0  0  0
   -6.1296   -4.1375    1.7111 H   0  0  0  0  0  0  0  0  0  0  0  0
   -2.3174    0.0876    2.6482 H   0  0  0  0  0  0  0  0  0  0  0  0
   -2.3421    0.9741    4.9230 H   0  0  0  0  0  0  0  0  0  0  0  0
   -1.1928    2.1556    6.7565 H   0  0  0  0  0  0  0  0  0  0  0  0
    1.1308    2.9713    6.4481 H   0  0  0  0  0  0  0  0  0  0  0  0
    2.2969    2.6047    4.3058 H   0  0  0  0  0  0  0  0  0  0  0  0
    2.2933    1.7105    2.0294 H   0  0  0  0  0  0  0  0  0  0  0  0
    2.0292   -1.5773    0.7290 H   0  0  0  0  0  0  0  0  0  0  0  0
    2.3645   -3.8150    1.4357 H   0  0  0  0  0  0  0  0  0  0  0  0
    4.6050   -4.8146    1.4548 H   0  0  0  0  0  0  0  0  0  0  0  0
    8.7255   -1.0940   -0.3381 H   0  0  0  0  0  0  0  0  0  0  0  0
    8.9304   -3.3765    0.3932 H   0  0  0  0  0  0  0  0  0  0  0  0
    6.9525   -4.6539    1.0812 H   0  0  0  0  0  0  0  0  0  0  0  0
    8.5408    0.8306   -0.8402 H   0  0  0  0  0  0  0  0  0  0  0  0
    8.3110    3.1141   -1.5571 H   0  0  0  0  0  0  0  0  0  0  0  0
    6.0985    4.1583   -1.7060 H   0  0  0  0  0  0  0  0  0  0  0  0
    3.7521    4.0696   -1.4935 H   0  0  0  0  0  0  0  0  0  0  0  0
    1.7053    2.8815   -0.9780 H   0  0  0  0  0  0  0  0  0  0  0  0
    2.3097   -0.1232   -2.6841 H   0  0  0  0  0  0  0  0  0  0  0  0
    2.3388   -1.0179   -4.9566 H   0  0  0  0  0  0  0  0  0  0  0  0
    1.1909   -2.1995   -6.7901 H   0  0  0  0  0  0  0  0  0  0  0  0
   -1.1358   -3.0094   -6.4856 H   0  0  0  0  0  0  0  0  0  0  0  0
   -2.3049   -2.6382   -4.3465 H   0  0  0  0  0  0  0  0  0  0  0  0
   -2.3031   -1.7420   -2.0698 H   0  0  0  0  0  0  0  0  0  0  0  0
   -1.7351   -2.9212    0.9027 H   0  0  0  0  0  0  0  0  0  0  0  0
   -3.7897   -4.0860    1.4402 H   0  0  0  0  0  0  0  0  0  0  0  0
   -2.0325    1.5395   -0.7982 H   0  0  0  0  0  0  0  0  0  0  0  0
   -2.3440    3.7897   -1.4764 H   0  0  0  0  0  0  0  0  0  0  0  0
   -4.5661    4.8321   -1.4226 H   0  0  0  0  0  0  0  0  0  0  0  0
  1  2  4  0
  2  3  4  0
  3  4  4  0
  4  5  4  0
  5  6  4  0
  5  7  4  0
  7  8  4  0
  8  9  4  0
  9 10  4  0
 10 11  4  0
 11 12  4  0
 12 13  4  0
 13 14  4  0
 14 15  1  0
 15 16  4  0
 16 17  4  0
 17 18  4  0
 18 19  4  0
 19 20  4  0
 20 21  4  0
 21 22  4  0
 22 23  4  0
 23 24  4  0
 24 25  4  0
 25 26  4  0
 26 27  1  0
 27 28  4  0
 28 29  4  0
 29 30  4  0
 30 31  4  0
 31 32  4  0
 32 33  4  0
 33 34  4  0
 34 35  4  0
 35 36  4  0
 36 37  4  0
 37 38  4  0
 35 39  4  0
 39 40  4  0
 40 41  4  0
 41 42  4  0
 42 43  4  0
 43 44  4  0
 43 45  4  0
 45 46  4  0
 26 47  4  0
 47 48  4  0
 48 49  4  0
 49 50  4  0
 50 51  4  0
 51 52  4  0
 52 53  4  0
 53 54  4  0
 54 55  4  0
 55 56  4  0
 14 57  4  0
 57 58  4  0
 13 59  4  0
 59 60  4  0
 60 61  4  0
 61 62  4  0
  6  1  4  0
 12  7  4  0
 56 15  4  0
 62  3  4  0
 59  4  4  0
 58 11  4  0
 25 16  4  0
 46 27  4  0
 56 47  4  0
 23 18  4  0
 44 28  4  0
 54 49  4  0
 34 29  4  0
 44 39  4  0
 38 33  4  0
  1 63  1  0
  2 64  1  0
  6 65  1  0
  8 66  1  0
  9 67  1  0
 10 68  1  0
 17 69  1  0
 19 70  1  0
 20 71  1  0
 21 72  1  0
 22 73  1  0
 24 74  1  0
 30 75  1  0
 31 76  1  0
 32 77  1  0
 36 78  1  0
 37 79  1  0
 38 80  1  0
 40 81  1  0
 41 82  1  0
 42 83  1  0
 45 84  1  0
 46 85  1  0
 48 86  1  0
 50 87  1  0
 51 88  1  0
 52 89  1  0
 53 90  1  0
 55 91  1  0
 57 92  1  0
 58 93  1  0
 60 94  1  0
 61 95  1  0
 62 96  1  0
M  END
