
     RDKit          3D

 96110  0  0  0  0  0  0  0  0999 V2000
   10.2410   -0.3562   -1.1222 C   0  0  0  0  0  0  0  0  0  0  0  0
    9.7640   -1.5756   -1.5694 C   0  0  0  0  0  0  0  0  0  0  0  0
    8.3938   -1.8433   -1.5517 C   0  0  0  0  0  0  0  0  0  0  0  0
    7.4663   -0.8651   -1.0748 C   0  0  0  0  0  0  0  0  0  0  0  0
    7.9439    0.3902   -0.6135 C   0  0  0  0  0  0  0  0  0  0  0  0
    9.3464    0.6043   -0.6546 C   0  0  0  0  0  0  0  0  0  0  0  0
    7.0139    1.3695   -0.1346 C   0  0  0  0  0  0  0  0  0  0  0  0
    7.4084    2.6450    0.3464 C   0  0  0  0  0  0  0  0  0  0  0  0
    6.4951    3.5892    0.8102 C   0  0  0  0  0  0  0  0  0  0  0  0
    5.1439    3.2914    0.8108 C   0  0  0  0  0  0  0  0  0  0  0  0
    4.6969    2.0520    0.3489 C   0  0  0  0  0  0  0  0  0  0  0  0
    5.6243    1.0758   -0.1289 C   0  0  0  0  0  0  0  0  0  0  0  0
    5.1477   -0.1781   -0.5916 C   0  0  0  0  0  0  0  0  0  0  0  0
    3.7452   -0.3929   -0.5545 C   0  0  0  0  0  0  0  0  0  0  0  0
    2.8328    0.5623   -0.0839 C   0  0  0  0  0  0  0  0  0  0  0  0
    1.3792    0.2720   -0.0551 C   0  0  0  0  0  0  0  0  0  0  0  0
    0.5678    0.6143   -1.1808 C   0  0  0  0  0  0  0  0  0  0  0  0
    1.1015    1.2263   -2.3477 C   0  0  0  0  0  0  0  0  0  0  0  0
    0.3204    1.5674   -3.4632 C   0  0  0  0  0  0  0  0  0  0  0  0
    0.8776    2.1717   -4.6039 C   0  0  0  0  0  0  0  0  0  0  0  0
    0.0795    2.5009   -5.7003 C   0  0  0  0  0  0  0  0  0  0  0  0
   -1.2845    2.2306   -5.6689 C   0  0  0  0  0  0  0  0  0  0  0  0
   -1.8479    1.6307   -4.5418 C   0  0  0  0  0  0  0  0  0  0  0  0
   -1.0529    1.2943   -3.4321 C   0  0  0  0  0  0  0  0  0  0  0  0
   -1.5949    0.6895   -2.2871 C   0  0  0  0  0  0  0  0  0  0  0  0
   -0.8179    0.3390   -1.1493 C   0  0  0  0  0  0  0  0  0  0  0  0
   -1.3877   -0.2750    0.0090 C   0  0  0  0  0  0  0  0  0  0  0  0
   -2.8427   -0.5571    0.0480 C   0  0  0  0  0  0  0  0  0  0  0  0
   -3.3433   -1.7901   -0.3615 C   0  0  0  0  0  0  0  0  0  0  0  0
   -4.7128   -2.0589   -0.3080 C   0  0  0  0  0  0  0  0  0  0  0  0
   -5.6318   -1.0709    0.1619 C   0  0  0  0  0  0  0  0  0  0  0  0
   -7.0200   -1.3675    0.2076 C   0  0  0  0  0  0  0  0  0  0  0  0
   -7.4211   -2.6588   -0.2233 C   0  0  0  0  0  0  0  0  0  0  0  0
   -6.5155   -3.6151   -0.6773 C   0  0  0  0  0  0  0  0  0  0  0  0
   -5.1659   -3.3135   -0.7198 C   0  0  0  0  0  0  0  0  0  0  0  0
   -7.9419   -0.3759    0.6768 C   0  0  0  0  0  0  0  0  0  0  0  0
   -9.3426   -0.5912    0.7530 C   0  0  0  0  0  0  0  0  0  0  0  0
  -10.2296    0.3812    1.2101 C   0  0  0  0  0  0  0  0  0  0  0  0
   -9.7465    1.6140    1.6115 C   0  0  0  0  0  0  0  0  0  0  0  0
   -8.3776    1.8831    1.5591 C   0  0  0  0  0  0  0  0  0  0  0  0
   -7.4577    0.8929    1.0919 C   0  0  0  0  0  0  0  0  0  0  0  0
   -6.0695    1.1884    1.0482 C   0  0  0  0  0  0  0  0  0  0  0  0
   -5.6682    2.4792    1.4810 C   0  0  0  0  0  0  0  0  0  0  0  0
   -6.5736    3.4366    1.9336 C   0  0  0  0  0  0  0  0  0  0  0  0
   -7.9239    3.1374    1.9717 C   0  0  0  0  0  0  0  0  0  0  0  0
   -5.1482    0.1961    0.5795 C   0  0  0  0  0  0  0  0  0  0  0  0
   -3.7469    0.4107    0.5087 C   0  0  0  0  0  0  0  0  0  0  0  0
   -0.5756   -0.6198    1.1339 C   0  0  0  0  0  0  0  0  0  0  0  0
   -1.1087   -1.2314    2.3018 C   0  0  0  0  0  0  0  0  0  0  0  0
   -0.3249   -1.5861    3.4108 C   0  0  0  0  0  0  0  0  0  0  0  0
   -0.8800   -2.1963    4.5490 C   0  0  0  0  0  0  0  0  0  0  0  0
   -0.0766   -2.5425    5.6364 C   0  0  0  0  0  0  0  0  0  0  0  0
    1.2893   -2.2824    5.5991 C   0  0  0  0  0  0  0  0  0  0  0  0
    1.8500   -1.6755    4.4747 C   0  0  0  0  0  0  0  0  0  0  0  0
    1.0500   -1.3229    3.3742 C   0  0  0  0  0  0  0  0  0  0  0  0
    1.5898   -0.7118    2.2322 C   0  0  0  0  0  0  0  0  0  0  0  0
    0.8103   -0.3491    1.1001 C   0  0  0  0  0  0  0  0  0  0  0  0
    3.3260    1.7846    0.3655 C   0  0  0  0  0  0  0  0  0  0  0  0
    6.0771   -1.1595   -1.0666 C   0  0  0  0  0  0  0  0  0  0  0  0
    5.6829   -2.4386   -1.5388 C   0  0  0  0  0  0  0  0  0  0  0  0
    6.5957   -3.3840   -2.0011 C   0  0  0  0  0  0  0  0  0  0  0  0
    7.9464   -3.0846   -2.0079 C   0  0  0  0  0  0  0  0  0  0  0  0
   11.3076   -0.1480   -1.1348 H   0  0  0  0  0  0  0  0  0  0  0  0
   10.4735   -2.3163   -1.9315 H   0  0  0  0  0  0  0  0  0  0  0  0
    9.7835    1.5398   -0.3182 H   0  0  0  0  0  0  0  0  0  0  0  0
    8.4540    2.9379    0.3727 H   0  0  0  0  0  0  0  0  0  0  0  0
    6.8428    4.5538    1.1704 H   0  0  0  0  0  0  0  0  0  0  0  0
    4.4422    4.0379    1.1767 H   0  0  0  0  0  0  0  0  0  0  0  0
    3.3210   -1.3338   -0.8961 H   0  0  0  0  0  0  0  0  0  0  0  0
    2.1669    1.4484   -2.3990 H   0  0  0  0  0  0  0  0  0  0  0  0
    1.9429    2.3900   -4.6436 H   0  0  0  0  0  0  0  0  0  0  0  0
    0.5238    2.9674   -6.5756 H   0  0  0  0  0  0  0  0  0  0  0  0
   -1.9111    2.4851   -6.5193 H   0  0  0  0  0  0  0  0  0  0  0  0
   -2.9164    1.4259   -4.5331 H   0  0  0  0  0  0  0  0  0  0  0  0
   -2.6653    0.4863   -2.2905 H   0  0  0  0  0  0  0  0  0  0  0  0
   -2.6479   -2.5479   -0.7200 H   0  0  0  0  0  0  0  0  0  0  0  0
   -8.4657   -2.9558   -0.2144 H   0  0  0  0  0  0  0  0  0  0  0  0
   -6.8677   -4.5928   -0.9953 H   0  0  0  0  0  0  0  0  0  0  0  0
   -4.4702   -4.0699   -1.0767 H   0  0  0  0  0  0  0  0  0  0  0  0
   -9.7841   -1.5371    0.4535 H   0  0  0  0  0  0  0  0  0  0  0  0
  -11.2950    0.1713    1.2512 H   0  0  0  0  0  0  0  0  0  0  0  0
  -10.4501    2.3635    1.9669 H   0  0  0  0  0  0  0  0  0  0  0  0
   -4.6235    2.7765    1.4758 H   0  0  0  0  0  0  0  0  0  0  0  0
   -6.2195    4.4126    2.2545 H   0  0  0  0  0  0  0  0  0  0  0  0
   -8.6195    3.8943    2.3266 H   0  0  0  0  0  0  0  0  0  0  0  0
   -3.3165    1.3592    0.8203 H   0  0  0  0  0  0  0  0  0  0  0  0
   -2.1758   -1.4450    2.3579 H   0  0  0  0  0  0  0  0  0  0  0  0
   -1.9464   -2.4071    4.5949 H   0  0  0  0  0  0  0  0  0  0  0  0
   -0.5189   -3.0145    6.5096 H   0  0  0  0  0  0  0  0  0  0  0  0
    1.9194   -2.5502    6.4430 H   0  0  0  0  0  0  0  0  0  0  0  0
    2.9200   -1.4792    4.4603 H   0  0  0  0  0  0  0  0  0  0  0  0
    2.6617   -0.5165    2.2325 H   0  0  0  0  0  0  0  0  0  0  0  0
    2.6244    2.5317    0.7342 H   0  0  0  0  0  0  0  0  0  0  0  0
    4.6384   -2.7359   -1.5572 H   0  0  0  0  0  0  0  0  0  0  0  0
    6.2477   -4.3510   -2.3543 H   0  0  0  0  0  0  0  0  0  0  0  0
    8.6475   -3.8318   -2.3724 H   0  0  0  0  0  0  0  0  0  0  0  0
  1  2  4  0
  2  3  4  0
  3  4  4  0
  4  5  4  0
  5  6  4  0
  5  7  4  0
  7  8  4  0
  8  9  4  0
  9 10  4  0
 10 11  4  0
 11 12  4  0
 12 13  4  0
 13 14  4  0
 14 15  4  0
 15 16  1  0
 16 17  4  0
 17 18  4  0
 18 19  4  0
 19 20  4  0
 20 21  4  0
 21 22  4  0
 22 23  4  0
 23 24  4  0
 24 25  4  0
 25 26  4  0
 26 27  4  0
 27 28  1  0
 28 29  4  0
 29 30  4  0
 30 31  4  0
 31 32  4  0
 32 33  4  0
 33 34  4  0
 34 35  4  0
 32 36  4  0
 36 37  4  0
 37 38  4  0
 38 39  4  0
 39 40  4  0
 40 41  4  0
 41 42  4  0
 42 43  4  0
 43 44  4  0
 44 45  4  0
 42 46  4  0
 46 47  4  0
 27 48  4  0
 48 49  4  0
 49 50  4  0
 50 51  4  0
 51 52  4  0
 52 53  4  0
 53 54  4  0
 54 55  4  0
 55 56  4  0
 56 57  4  0
 15 58  4  0
 13 59  4  0
 59 60  4  0
 60 61  4  0
 61 62  4  0
  6  1  4  0
 12  7  4  0
 57 16  4  0
 62  3  4  0
 59  4  4  0
 58 11  4  0
 26 17  4  0
 47 28  4  0
 57 48  4  0
 24 19  4  0
 35 30  4  0
 41 36  4  0
 55 50  4  0
 46 31  4  0
 45 40  4  0
  1 63  1  0
  2 64  1  0
  6 65  1  0
  8 66  1  0
  9 67  1  0
 10 68  1  0
 14 69  1  0
 18 70  1  0
 20 71  1  0
 21 72  1  0
 22 73  1  0
 23 74  1  0
 25 75  1  0
 29 76  1  0
 33 77  1  0
 34 78  1  0
 35 79  1  0
 37 80  1  0
 38 81  1  0
 39 82  1  0
 43 83  1  0
 44 84  1  0
 45 85  1  0
 47 86  1  0
 49 87  1  0
 51 88  1  0
 52 89  1  0
 53 90  1  0
 54 91  1  0
 56 92  1  0
 58 93  1  0
 60 94  1  0
 61 95  1  0
 62 96  1  0
M  END
