
     RDKit          3D

102116  0  0  0  0  0  0  0  0999 V2000
   13.9919   -3.1526    0.8501 C   0  0  0  0  0  0  0  0  0  0  0  0
   13.3330   -2.0362    0.3332 C   0  0  0  0  0  0  0  0  0  0  0  0
   11.9309   -1.9548    0.3570 C   0  0  0  0  0  0  0  0  0  0  0  0
   11.2523   -0.8385   -0.1591 C   0  0  0  0  0  0  0  0  0  0  0  0
    9.8497   -0.7602   -0.1339 C   0  0  0  0  0  0  0  0  0  0  0  0
    9.1657    0.3504   -0.6483 C   0  0  0  0  0  0  0  0  0  0  0  0
    7.7612    0.4120   -0.6150 C   0  0  0  0  0  0  0  0  0  0  0  0
    7.0580    1.5089   -1.1247 C   0  0  0  0  0  0  0  0  0  0  0  0
    5.6603    1.5318   -1.0757 C   0  0  0  0  0  0  0  0  0  0  0  0
    4.9213    2.6146   -1.5794 C   0  0  0  0  0  0  0  0  0  0  0  0
    3.5294    2.6049   -1.5152 C   0  0  0  0  0  0  0  0  0  0  0  0
    2.8574    1.5159   -0.9474 C   0  0  0  0  0  0  0  0  0  0  0  0
    1.3762    1.5018   -0.8697 C   0  0  0  0  0  0  0  0  0  0  0  0
    0.7266    2.0508    0.2799 C   0  0  0  0  0  0  0  0  0  0  0  0
    1.4483    2.5980    1.3758 C   0  0  0  0  0  0  0  0  0  0  0  0
    0.8292    3.1483    2.5092 C   0  0  0  0  0  0  0  0  0  0  0  0
    1.5723    3.6837    3.5759 C   0  0  0  0  0  0  0  0  0  0  0  0
    0.9318    4.2265    4.6907 C   0  0  0  0  0  0  0  0  0  0  0  0
   -0.4579    4.2392    4.7530 C   0  0  0  0  0  0  0  0  0  0  0  0
   -1.2048    3.7087    3.7003 C   0  0  0  0  0  0  0  0  0  0  0  0
   -0.5695    3.1604    2.5721 C   0  0  0  0  0  0  0  0  0  0  0  0
   -1.2967    2.6204    1.4999 C   0  0  0  0  0  0  0  0  0  0  0  0
   -0.6848    2.0610    0.3445 C   0  0  0  0  0  0  0  0  0  0  0  0
   -1.4438    1.5198   -0.7395 C   0  0  0  0  0  0  0  0  0  0  0  0
   -2.9253    1.5438   -0.6759 C   0  0  0  0  0  0  0  0  0  0  0  0
   -3.6438    2.6324   -1.1845 C   0  0  0  0  0  0  0  0  0  0  0  0
   -5.0351    2.6506   -1.1106 C   0  0  0  0  0  0  0  0  0  0  0  0
   -5.7264    1.5773   -0.5249 C   0  0  0  0  0  0  0  0  0  0  0  0
   -7.1219    1.5642   -0.4304 C   0  0  0  0  0  0  0  0  0  0  0  0
   -7.7769    0.4794    0.1633 C   0  0  0  0  0  0  0  0  0  0  0  0
   -9.1779    0.4307    0.2783 C   0  0  0  0  0  0  0  0  0  0  0  0
   -9.8143   -0.6652    0.8787 C   0  0  0  0  0  0  0  0  0  0  0  0
  -11.2127   -0.7294    1.0020 C   0  0  0  0  0  0  0  0  0  0  0  0
  -11.8439   -1.8300    1.6050 C   0  0  0  0  0  0  0  0  0  0  0  0
  -13.2417   -1.8969    1.7297 C   0  0  0  0  0  0  0  0  0  0  0  0
  -13.8533   -2.9977    2.3317 C   0  0  0  0  0  0  0  0  0  0  0  0
  -13.0762   -4.0451    2.8164 C   0  0  0  0  0  0  0  0  0  0  0  0
  -11.6863   -3.9933    2.6999 C   0  0  0  0  0  0  0  0  0  0  0  0
  -11.0558   -2.8924    2.0967 C   0  0  0  0  0  0  0  0  0  0  0  0
   -9.6581   -2.8258    1.9722 C   0  0  0  0  0  0  0  0  0  0  0  0
   -9.0278   -1.7244    1.3686 C   0  0  0  0  0  0  0  0  0  0  0  0
   -7.6285   -1.6556    1.2426 C   0  0  0  0  0  0  0  0  0  0  0  0
   -6.9875   -0.5760    0.6501 C   0  0  0  0  0  0  0  0  0  0  0  0
   -5.6454   -0.5729    0.5619 N   0  0  0  0  0  0  0  0  0  0  0  0
   -5.0233    0.4734   -0.0091 C   0  0  0  0  0  0  0  0  0  0  0  0
   -3.6371    0.4781   -0.0962 C   0  0  0  0  0  0  0  0  0  0  0  0
   -0.7945    0.9649   -1.8859 C   0  0  0  0  0  0  0  0  0  0  0  0
   -1.5175    0.4170   -2.9804 C   0  0  0  0  0  0  0  0  0  0  0  0
   -0.8998   -0.1257   -4.1182 C   0  0  0  0  0  0  0  0  0  0  0  0
   -1.6447   -0.6558   -5.1867 C   0  0  0  0  0  0  0  0  0  0  0  0
   -1.0058   -1.1896   -6.3066 C   0  0  0  0  0  0  0  0  0  0  0  0
    0.3836   -1.2009   -6.3714 C   0  0  0  0  0  0  0  0  0  0  0  0
    1.1324   -0.6787   -5.3154 C   0  0  0  0  0  0  0  0  0  0  0  0
    0.4991   -0.1365   -4.1828 C   0  0  0  0  0  0  0  0  0  0  0  0
    1.2282    0.3972   -3.1078 C   0  0  0  0  0  0  0  0  0  0  0  0
    0.6173    0.9553   -1.9513 C   0  0  0  0  0  0  0  0  0  0  0  0
    3.6163    0.4416   -0.4488 C   0  0  0  0  0  0  0  0  0  0  0  0
    5.0047    0.4275   -0.5010 C   0  0  0  0  0  0  0  0  0  0  0  0
    5.6739   -0.6282   -0.0059 N   0  0  0  0  0  0  0  0  0  0  0  0
    7.0171   -0.6432   -0.0610 C   0  0  0  0  0  0  0  0  0  0  0  0
    7.7047   -1.7376    0.4441 C   0  0  0  0  0  0  0  0  0  0  0  0
    9.1081   -1.8204    0.4198 C   0  0  0  0  0  0  0  0  0  0  0  0
    9.7854   -2.9376    0.9359 C   0  0  0  0  0  0  0  0  0  0  0  0
   11.1873   -3.0184    0.9117 C   0  0  0  0  0  0  0  0  0  0  0  0
   11.8649   -4.1349    1.4278 C   0  0  0  0  0  0  0  0  0  0  0  0
   13.2585   -4.2010    1.3969 C   0  0  0  0  0  0  0  0  0  0  0  0
   15.0772   -3.2023    0.8252 H   0  0  0  0  0  0  0  0  0  0  0  0
   13.9243   -1.2273   -0.0899 H   0  0  0  0  0  0  0  0  0  0  0  0
   11.8266   -0.0187   -0.5869 H   0  0  0  0  0  0  0  0  0  0  0  0
    9.7292    1.1754   -1.0797 H   0  0  0  0  0  0  0  0  0  0  0  0
    7.5988    2.3448   -1.5619 H   0  0  0  0  0  0  0  0  0  0  0  0
    5.4239    3.4711   -2.0224 H   0  0  0  0  0  0  0  0  0  0  0  0
    2.9671    3.4503   -1.9076 H   0  0  0  0  0  0  0  0  0  0  0  0
    2.5371    2.5982    1.3556 H   0  0  0  0  0  0  0  0  0  0  0  0
    2.6595    3.6789    3.5437 H   0  0  0  0  0  0  0  0  0  0  0  0
    1.5187    4.6365    5.5080 H   0  0  0  0  0  0  0  0  0  0  0  0
   -0.9620    4.6595    5.6192 H   0  0  0  0  0  0  0  0  0  0  0  0
   -2.2905    3.7242    3.7654 H   0  0  0  0  0  0  0  0  0  0  0  0
   -2.3830    2.6396    1.5773 H   0  0  0  0  0  0  0  0  0  0  0  0
   -3.1180    3.4710   -1.6374 H   0  0  0  0  0  0  0  0  0  0  0  0
   -5.5749    3.5067   -1.5087 H   0  0  0  0  0  0  0  0  0  0  0  0
   -7.6992    2.4001   -0.8182 H   0  0  0  0  0  0  0  0  0  0  0  0
   -9.7759    1.2557   -0.1039 H   0  0  0  0  0  0  0  0  0  0  0  0
  -11.8209    0.0901    0.6232 H   0  0  0  0  0  0  0  0  0  0  0  0
  -13.8667   -1.0884    1.3572 H   0  0  0  0  0  0  0  0  0  0  0  0
  -14.9358   -3.0364    2.4215 H   0  0  0  0  0  0  0  0  0  0  0  0
  -13.5501   -4.9034    3.2855 H   0  0  0  0  0  0  0  0  0  0  0  0
  -11.0958   -4.8218    3.0849 H   0  0  0  0  0  0  0  0  0  0  0  0
   -9.0508   -3.6460    2.3520 H   0  0  0  0  0  0  0  0  0  0  0  0
   -7.0101   -2.4689    1.6176 H   0  0  0  0  0  0  0  0  0  0  0  0
   -3.0917   -0.3751    0.3046 H   0  0  0  0  0  0  0  0  0  0  0  0
   -2.6061    0.4069   -2.9536 H   0  0  0  0  0  0  0  0  0  0  0  0
   -2.7322   -0.6566   -5.1512 H   0  0  0  0  0  0  0  0  0  0  0  0
   -1.5934   -1.5970   -7.1251 H   0  0  0  0  0  0  0  0  0  0  0  0
    0.8850   -1.6174   -7.2412 H   0  0  0  0  0  0  0  0  0  0  0  0
    2.2182   -0.6983   -5.3793 H   0  0  0  0  0  0  0  0  0  0  0  0
    2.3147    0.3712   -3.1820 H   0  0  0  0  0  0  0  0  0  0  0  0
    3.1077   -0.4121   -0.0033 H   0  0  0  0  0  0  0  0  0  0  0  0
    7.1205   -2.5510    0.8703 H   0  0  0  0  0  0  0  0  0  0  0  0
    9.2118   -3.7582    1.3639 H   0  0  0  0  0  0  0  0  0  0  0  0
   11.3092   -4.9645    1.8593 H   0  0  0  0  0  0  0  0  0  0  0  0
   13.7694   -5.0714    1.8000 H   0  0  0  0  0  0  0  0  0  0  0  0
  1  2  4  0
  2  3  4  0
  3  4  4  0
  4  5  4  0
  5  6  4  0
  6  7  4  0
  7  8  4  0
  8  9  4  0
  9 10  4  0
 10 11  4  0
 11 12  4  0
 12 13  1  0
 13 14  4  0
 14 15  4  0
 15 16  4  0
 16 17  4  0
 17 18  4  0
 18 19  4  0
 19 20  4  0
 20 21  4  0
 21 22  4  0
 22 23  4  0
 23 24  4  0
 24 25  1  0
 25 26  4  0
 26 27  4  0
 27 28  4  0
 28 29  4  0
 29 30  4  0
 30 31  4  0
 31 32  4  0
 32 33  4  0
 33 34  4  0
 34 35  4  0
 35 36  4  0
 36 37  4  0
 37 38  4  0
 38 39  4  0
 39 40  4  0
 40 41  4  0
 41 42  4  0
 42 43  4  0
 43 44  4  0
 44 45  4  0
 45 46  4  0
 24 47  4  0
 47 48  4  0
 48 49  4  0
 49 50  4  0
 50 51  4  0
 51 52  4  0
 52 53  4  0
 53 54  4  0
 54 55  4  0
 55 56  4  0
 12 57  4  0
 57 58  4  0
 58 59  4  0
 59 60  4  0
 60 61  4  0
 61 62  4  0
 62 63  4  0
 63 64  4  0
 64 65  4  0
 65 66  4  0
 66  1  4  0
 64  3  4  0
 62  5  4  0
 60  7  4  0
 58  9  4  0
 56 13  4  0
 23 14  4  0
 46 25  4  0
 56 47  4  0
 21 16  4  0
 45 28  4  0
 54 49  4  0
 43 30  4  0
 41 32  4  0
 39 34  4  0
  1 67  1  0
  2 68  1  0
  4 69  1  0
  6 70  1  0
  8 71  1  0
 10 72  1  0
 11 73  1  0
 15 74  1  0
 17 75  1  0
 18 76  1  0
 19 77  1  0
 20 78  1  0
 22 79  1  0
 26 80  1  0
 27 81  1  0
 29 82  1  0
 31 83  1  0
 33 84  1  0
 35 85  1  0
 36 86  1  0
 37 87  1  0
 38 88  1  0
 40 89  1  0
 42 90  1  0
 46 91  1  0
 48 92  1  0
 50 93  1  0
 51 94  1  0
 52 95  1  0
 53 96  1  0
 55 97  1  0
 57 98  1  0
 61 99  1  0
 63100  1  0
 65101  1  0
 66102  1  0
M  END
