
     RDKit          3D

102116  0  0  0  0  0  0  0  0999 V2000
   -2.6751    4.0960   -4.6501 C   0  0  0  0  0  0  0  0  0  0  0  0
   -4.0555    4.2262   -4.7488 C   0  0  0  0  0  0  0  0  0  0  0  0
   -4.8851    3.5023   -3.8870 C   0  0  0  0  0  0  0  0  0  0  0  0
   -4.3687    2.6472   -2.9218 C   0  0  0  0  0  0  0  0  0  0  0  0
   -5.2056    1.9746   -2.1159 N   0  0  0  0  0  0  0  0  0  0  0  0
   -4.7034    1.1533   -1.1773 C   0  0  0  0  0  0  0  0  0  0  0  0
   -5.6012    0.4848   -0.3652 C   0  0  0  0  0  0  0  0  0  0  0  0
   -5.1993   -0.3894    0.6534 C   0  0  0  0  0  0  0  0  0  0  0  0
   -6.1646   -1.0366    1.4446 C   0  0  0  0  0  0  0  0  0  0  0  0
   -5.8030   -1.9152    2.4759 C   0  0  0  0  0  0  0  0  0  0  0  0
   -6.7677   -2.5631    3.2653 C   0  0  0  0  0  0  0  0  0  0  0  0
   -6.3849   -3.4344    4.2860 C   0  0  0  0  0  0  0  0  0  0  0  0
   -5.0352   -3.6668    4.5305 C   0  0  0  0  0  0  0  0  0  0  0  0
   -4.0672   -3.0289    3.7540 C   0  0  0  0  0  0  0  0  0  0  0  0
   -4.4384   -2.1507    2.7227 C   0  0  0  0  0  0  0  0  0  0  0  0
   -3.4778   -1.5014    1.9290 C   0  0  0  0  0  0  0  0  0  0  0  0
   -3.8271   -0.6140    0.8798 C   0  0  0  0  0  0  0  0  0  0  0  0
   -2.8755    0.0577    0.0480 C   0  0  0  0  0  0  0  0  0  0  0  0
   -1.4083   -0.1540    0.2492 C   0  0  0  0  0  0  0  0  0  0  0  0
   -0.6856    0.6466    1.1738 C   0  0  0  0  0  0  0  0  0  0  0  0
   -1.3205    1.5745    2.0421 C   0  0  0  0  0  0  0  0  0  0  0  0
   -0.6437    2.2246    3.0855 C   0  0  0  0  0  0  0  0  0  0  0  0
   -1.2906    3.1306    3.9433 C   0  0  0  0  0  0  0  0  0  0  0  0
   -0.5991    3.7359    4.9940 C   0  0  0  0  0  0  0  0  0  0  0  0
    0.7434    3.4377    5.2044 C   0  0  0  0  0  0  0  0  0  0  0  0
    1.3946    2.5376    4.3606 C   0  0  0  0  0  0  0  0  0  0  0  0
    0.7095    1.9297    3.2944 C   0  0  0  0  0  0  0  0  0  0  0  0
    1.3498    1.0476    2.4105 C   0  0  0  0  0  0  0  0  0  0  0  0
    0.7140    0.4799    1.2742 C   0  0  0  0  0  0  0  0  0  0  0  0
    1.4076   -0.2776    0.2843 C   0  0  0  0  0  0  0  0  0  0  0  0
    2.8681    0.0656   -0.1741 C   0  0  0  0  0  0  0  0  0  0  0  0
    3.6409   -0.7204   -1.0908 C   0  0  0  0  0  0  0  0  0  0  0  0
    3.1287   -1.4519   -2.1933 C   0  0  0  0  0  0  0  0  0  0  0  0
    3.9118   -2.3076   -2.9900 C   0  0  0  0  0  0  0  0  0  0  0  0
    3.3473   -3.0762   -4.0215 C   0  0  0  0  0  0  0  0  0  0  0  0
    4.1386   -3.9331   -4.7868 C   0  0  0  0  0  0  0  0  0  0  0  0
    5.5036   -4.0281   -4.5339 C   0  0  0  0  0  0  0  0  0  0  0  0
    6.0779   -3.2639   -3.5173 C   0  0  0  0  0  0  0  0  0  0  0  0
    5.2899   -2.3999   -2.7382 C   0  0  0  0  0  0  0  0  0  0  0  0
    5.8445   -1.5904   -1.7396 C   0  0  0  0  0  0  0  0  0  0  0  0
    5.0479   -0.7206   -0.9724 C   0  0  0  0  0  0  0  0  0  0  0  0
    5.6664    0.2065   -0.1387 C   0  0  0  0  0  0  0  0  0  0  0  0
    4.9545    1.2641    0.3749 C   0  0  0  0  0  0  0  0  0  0  0  0
    5.6624    2.2766    0.9058 N   0  0  0  0  0  0  0  0  0  0  0  0
    5.0363    3.4142    1.2428 C   0  0  0  0  0  0  0  0  0  0  0  0
    5.7593    4.4677    1.7877 C   0  0  0  0  0  0  0  0  0  0  0  0
    5.1497    5.6795    2.1277 C   0  0  0  0  0  0  0  0  0  0  0  0
    3.7866    5.8505    1.9171 C   0  0  0  0  0  0  0  0  0  0  0  0
    3.0411    4.8083    1.3718 C   0  0  0  0  0  0  0  0  0  0  0  0
    3.6622    3.5904    1.0395 C   0  0  0  0  0  0  0  0  0  0  0  0
    2.9449    2.5073    0.5166 C   0  0  0  0  0  0  0  0  0  0  0  0
    3.5525    1.2570    0.2531 C   0  0  0  0  0  0  0  0  0  0  0  0
    0.6527   -1.3872   -0.1911 C   0  0  0  0  0  0  0  0  0  0  0  0
    1.2120   -2.6644   -0.4521 C   0  0  0  0  0  0  0  0  0  0  0  0
    0.5032   -3.7102   -1.0649 C   0  0  0  0  0  0  0  0  0  0  0  0
    1.1149   -4.9361   -1.3797 C   0  0  0  0  0  0  0  0  0  0  0  0
    0.3966   -5.9479   -2.0176 C   0  0  0  0  0  0  0  0  0  0  0  0
   -0.9415   -5.7472   -2.3423 C   0  0  0  0  0  0  0  0  0  0  0  0
   -1.5605   -4.5365   -2.0266 C   0  0  0  0  0  0  0  0  0  0  0  0
   -0.8450   -3.5097   -1.3863 C   0  0  0  0  0  0  0  0  0  0  0  0
   -1.4503   -2.2998   -1.0148 C   0  0  0  0  0  0  0  0  0  0  0  0
   -0.7480   -1.2658   -0.3396 C   0  0  0  0  0  0  0  0  0  0  0  0
   -3.3263    0.9455   -0.9819 C   0  0  0  0  0  0  0  0  0  0  0  0
   -2.4681    1.6583   -1.8461 C   0  0  0  0  0  0  0  0  0  0  0  0
   -2.9744    2.5207   -2.8257 C   0  0  0  0  0  0  0  0  0  0  0  0
   -2.1326    3.2447   -3.6900 C   0  0  0  0  0  0  0  0  0  0  0  0
   -2.0231    4.6545   -5.3169 H   0  0  0  0  0  0  0  0  0  0  0  0
   -4.4926    4.8876   -5.4928 H   0  0  0  0  0  0  0  0  0  0  0  0
   -5.9644    3.6085   -3.9695 H   0  0  0  0  0  0  0  0  0  0  0  0
   -6.6624    0.6606   -0.5385 H   0  0  0  0  0  0  0  0  0  0  0  0
   -7.2216   -0.8542    1.2542 H   0  0  0  0  0  0  0  0  0  0  0  0
   -7.8276   -2.3937    3.0894 H   0  0  0  0  0  0  0  0  0  0  0  0
   -7.1408   -3.9307    4.8883 H   0  0  0  0  0  0  0  0  0  0  0  0
   -4.7336   -4.3445    5.3247 H   0  0  0  0  0  0  0  0  0  0  0  0
   -3.0164   -3.2231    3.9590 H   0  0  0  0  0  0  0  0  0  0  0  0
   -2.4272   -1.6984    2.1396 H   0  0  0  0  0  0  0  0  0  0  0  0
   -2.3880    1.7658    1.9411 H   0  0  0  0  0  0  0  0  0  0  0  0
   -2.3428    3.3674    3.7998 H   0  0  0  0  0  0  0  0  0  0  0  0
   -1.1105    4.4356    5.6498 H   0  0  0  0  0  0  0  0  0  0  0  0
    1.2856    3.9053    6.0223 H   0  0  0  0  0  0  0  0  0  0  0  0
    2.4477    2.3225    4.5323 H   0  0  0  0  0  0  0  0  0  0  0  0
    2.3938    0.8024    2.6084 H   0  0  0  0  0  0  0  0  0  0  0  0
    2.0781   -1.3400   -2.4588 H   0  0  0  0  0  0  0  0  0  0  0  0
    2.2796   -3.0209   -4.2260 H   0  0  0  0  0  0  0  0  0  0  0  0
    3.6884   -4.5256   -5.5788 H   0  0  0  0  0  0  0  0  0  0  0  0
    6.1237   -4.6920   -5.1306 H   0  0  0  0  0  0  0  0  0  0  0  0
    7.1486   -3.3428   -3.3416 H   0  0  0  0  0  0  0  0  0  0  0  0
    6.9238   -1.6008   -1.5919 H   0  0  0  0  0  0  0  0  0  0  0  0
    6.7496    0.2204   -0.0353 H   0  0  0  0  0  0  0  0  0  0  0  0
    6.8277    4.3428    1.9468 H   0  0  0  0  0  0  0  0  0  0  0  0
    5.7434    6.4847    2.5529 H   0  0  0  0  0  0  0  0  0  0  0  0
    3.3047    6.7889    2.1792 H   0  0  0  0  0  0  0  0  0  0  0  0
    1.9717    4.9408    1.2208 H   0  0  0  0  0  0  0  0  0  0  0  0
    1.8856    2.6452    0.3077 H   0  0  0  0  0  0  0  0  0  0  0  0
    2.2475   -2.8532   -0.1674 H   0  0  0  0  0  0  0  0  0  0  0  0
    2.1631   -5.1044   -1.1398 H   0  0  0  0  0  0  0  0  0  0  0  0
    0.8829   -6.8894   -2.2592 H   0  0  0  0  0  0  0  0  0  0  0  0
   -1.5085   -6.5330   -2.8344 H   0  0  0  0  0  0  0  0  0  0  0  0
   -2.6112   -4.4018   -2.2755 H   0  0  0  0  0  0  0  0  0  0  0  0
   -2.5173   -2.1937   -1.2067 H   0  0  0  0  0  0  0  0  0  0  0  0
   -1.3895    1.5472   -1.7578 H   0  0  0  0  0  0  0  0  0  0  0  0
   -1.0514    3.1476   -3.6158 H   0  0  0  0  0  0  0  0  0  0  0  0
  1  2  4  0
  2  3  4  0
  3  4  4  0
  4  5  4  0
  5  6  4  0
  6  7  4  0
  7  8  4  0
  8  9  4  0
  9 10  4  0
 10 11  4  0
 11 12  4  0
 12 13  4  0
 13 14  4  0
 14 15  4  0
 15 16  4  0
 16 17  4  0
 17 18  4  0
 18 19  1  0
 19 20  4  0
 20 21  4  0
 21 22  4  0
 22 23  4  0
 23 24  4  0
 24 25  4  0
 25 26  4  0
 26 27  4  0
 27 28  4  0
 28 29  4  0
 29 30  4  0
 30 31  1  0
 31 32  4  0
 32 33  4  0
 33 34  4  0
 34 35  4  0
 35 36  4  0
 36 37  4  0
 37 38  4  0
 38 39  4  0
 39 40  4  0
 40 41  4  0
 41 42  4  0
 42 43  4  0
 43 44  4  0
 44 45  4  0
 45 46  4  0
 46 47  4  0
 47 48  4  0
 48 49  4  0
 49 50  4  0
 50 51  4  0
 51 52  4  0
 30 53  4  0
 53 54  4  0
 54 55  4  0
 55 56  4  0
 56 57  4  0
 57 58  4  0
 58 59  4  0
 59 60  4  0
 60 61  4  0
 61 62  4  0
 18 63  4  0
 63 64  4  0
 64 65  4  0
 65 66  4  0
 66  1  4  0
 65  4  4  0
 63  6  4  0
 17  8  4  0
 62 19  4  0
 15 10  4  0
 29 20  4  0
 52 31  4  0
 62 53  4  0
 27 22  4  0
 41 32  4  0
 52 43  4  0
 60 55  4  0
 39 34  4  0
 50 45  4  0
  1 67  1  0
  2 68  1  0
  3 69  1  0
  7 70  1  0
  9 71  1  0
 11 72  1  0
 12 73  1  0
 13 74  1  0
 14 75  1  0
 16 76  1  0
 21 77  1  0
 23 78  1  0
 24 79  1  0
 25 80  1  0
 26 81  1  0
 28 82  1  0
 33 83  1  0
 35 84  1  0
 36 85  1  0
 37 86  1  0
 38 87  1  0
 40 88  1  0
 42 89  1  0
 46 90  1  0
 47 91  1  0
 48 92  1  0
 49 93  1  0
 51 94  1  0
 54 95  1  0
 56 96  1  0
 57 97  1  0
 58 98  1  0
 59 99  1  0
 61100  1  0
 64101  1  0
 66102  1  0
M  END
