
     RDKit          3D

102116  0  0  0  0  0  0  0  0999 V2000
   -4.7877    6.3546    2.5955 C   0  0  0  0  0  0  0  0  0  0  0  0
   -6.1353    6.1855    2.2991 C   0  0  0  0  0  0  0  0  0  0  0  0
   -6.5474    5.0906    1.5331 C   0  0  0  0  0  0  0  0  0  0  0  0
   -5.6431    4.1531    1.0517 C   0  0  0  0  0  0  0  0  0  0  0  0
   -6.0895    3.1164    0.3205 N   0  0  0  0  0  0  0  0  0  0  0  0
   -5.2089    2.2081   -0.1357 C   0  0  0  0  0  0  0  0  0  0  0  0
   -5.6507    1.1568   -0.9192 C   0  0  0  0  0  0  0  0  0  0  0  0
   -4.7818    0.1693   -1.4228 C   0  0  0  0  0  0  0  0  0  0  0  0
   -5.2730   -0.7577   -2.3370 C   0  0  0  0  0  0  0  0  0  0  0  0
   -4.3961   -1.5706   -3.0477 C   0  0  0  0  0  0  0  0  0  0  0  0
   -4.8784   -2.2945   -4.1535 C   0  0  0  0  0  0  0  0  0  0  0  0
   -4.0139   -3.0055   -4.9792 C   0  0  0  0  0  0  0  0  0  0  0  0
   -2.6546   -2.9753   -4.7211 C   0  0  0  0  0  0  0  0  0  0  0  0
   -2.1771   -2.2821   -3.6044 C   0  0  0  0  0  0  0  0  0  0  0  0
   -3.0309   -1.6188   -2.6804 C   0  0  0  0  0  0  0  0  0  0  0  0
   -2.6023   -0.9731   -1.4626 C   0  0  0  0  0  0  0  0  0  0  0  0
   -1.3400   -1.4409   -0.6999 C   0  0  0  0  0  0  0  0  0  0  0  0
   -0.6858   -2.6700   -0.9373 C   0  0  0  0  0  0  0  0  0  0  0  0
   -1.3706   -3.8776   -1.2436 C   0  0  0  0  0  0  0  0  0  0  0  0
   -0.7118   -5.1012   -1.4359 C   0  0  0  0  0  0  0  0  0  0  0  0
   -1.4113   -6.2706   -1.7785 C   0  0  0  0  0  0  0  0  0  0  0  0
   -0.7364   -7.4795   -1.9533 C   0  0  0  0  0  0  0  0  0  0  0  0
    0.6433   -7.5341   -1.7817 C   0  0  0  0  0  0  0  0  0  0  0  0
    1.3472   -6.3796   -1.4356 C   0  0  0  0  0  0  0  0  0  0  0  0
    0.6789   -5.1555   -1.2629 C   0  0  0  0  0  0  0  0  0  0  0  0
    1.3619   -3.9828   -0.9043 C   0  0  0  0  0  0  0  0  0  0  0  0
    0.7174   -2.7227   -0.7651 C   0  0  0  0  0  0  0  0  0  0  0  0
    1.3836   -1.5407   -0.3694 C   0  0  0  0  0  0  0  0  0  0  0  0
    2.8225   -1.1707   -0.8026 C   0  0  0  0  0  0  0  0  0  0  0  0
    3.4950   -1.8688   -1.8720 C   0  0  0  0  0  0  0  0  0  0  0  0
    2.8548   -2.4971   -2.9754 C   0  0  0  0  0  0  0  0  0  0  0  0
    3.5467   -3.2448   -3.9336 C   0  0  0  0  0  0  0  0  0  0  0  0
    4.9224   -3.3668   -3.8453 C   0  0  0  0  0  0  0  0  0  0  0  0
    5.6009   -2.6912   -2.8365 C   0  0  0  0  0  0  0  0  0  0  0  0
    4.9089   -1.9124   -1.8909 C   0  0  0  0  0  0  0  0  0  0  0  0
    5.6346   -1.1343   -0.9950 C   0  0  0  0  0  0  0  0  0  0  0  0
    4.9941   -0.1554   -0.2417 C   0  0  0  0  0  0  0  0  0  0  0  0
    5.7743    0.7962    0.4438 C   0  0  0  0  0  0  0  0  0  0  0  0
    5.2219    1.8939    1.0798 C   0  0  0  0  0  0  0  0  0  0  0  0
    6.0207    2.7678    1.7182 N   0  0  0  0  0  0  0  0  0  0  0  0
    5.4754    3.8496    2.3017 C   0  0  0  0  0  0  0  0  0  0  0  0
    6.2947    4.7534    2.9656 C   0  0  0  0  0  0  0  0  0  0  0  0
    5.7786    5.8931    3.5899 C   0  0  0  0  0  0  0  0  0  0  0  0
    4.4114    6.1425    3.5539 C   0  0  0  0  0  0  0  0  0  0  0  0
    3.5670    5.2526    2.8935 C   0  0  0  0  0  0  0  0  0  0  0  0
    4.0923    4.1085    2.2663 C   0  0  0  0  0  0  0  0  0  0  0  0
    3.2757    3.1928    1.5942 C   0  0  0  0  0  0  0  0  0  0  0  0
    3.8369    2.0607    0.9921 C   0  0  0  0  0  0  0  0  0  0  0  0
    3.0511    1.1007    0.3228 C   0  0  0  0  0  0  0  0  0  0  0  0
    3.5836   -0.0935   -0.2242 C   0  0  0  0  0  0  0  0  0  0  0  0
    0.6154   -0.9130    0.6335 C   0  0  0  0  0  0  0  0  0  0  0  0
    1.1504   -0.4686    1.8727 C   0  0  0  0  0  0  0  0  0  0  0  0
    0.3691    0.1067    2.8872 C   0  0  0  0  0  0  0  0  0  0  0  0
    0.9390    0.6152    4.0672 C   0  0  0  0  0  0  0  0  0  0  0  0
    0.1360    1.1675    5.0661 C   0  0  0  0  0  0  0  0  0  0  0  0
   -1.2450    1.2073    4.9021 C   0  0  0  0  0  0  0  0  0  0  0  0
   -1.8221    0.6941    3.7399 C   0  0  0  0  0  0  0  0  0  0  0  0
   -1.0213    0.1473    2.7222 C   0  0  0  0  0  0  0  0  0  0  0  0
   -1.5752   -0.3853    1.5479 C   0  0  0  0  0  0  0  0  0  0  0  0
   -0.7915   -0.8652    0.4643 C   0  0  0  0  0  0  0  0  0  0  0  0
   -3.4174    0.1438   -1.0612 C   0  0  0  0  0  0  0  0  0  0  0  0
   -2.9669    1.2974   -0.3724 C   0  0  0  0  0  0  0  0  0  0  0  0
   -3.8367    2.2933    0.1156 C   0  0  0  0  0  0  0  0  0  0  0  0
   -3.3764    3.3803    0.8677 C   0  0  0  0  0  0  0  0  0  0  0  0
   -4.2799    4.3305    1.3542 C   0  0  0  0  0  0  0  0  0  0  0  0
   -3.8590    5.4294    2.1245 C   0  0  0  0  0  0  0  0  0  0  0  0
   -4.4613    7.2031    3.1911 H   0  0  0  0  0  0  0  0  0  0  0  0
   -6.8700    6.9004    2.6606 H   0  0  0  0  0  0  0  0  0  0  0  0
   -7.6033    4.9643    1.3057 H   0  0  0  0  0  0  0  0  0  0  0  0
   -6.7097    1.1321   -1.1718 H   0  0  0  0  0  0  0  0  0  0  0  0
   -6.3267   -0.7366   -2.6107 H   0  0  0  0  0  0  0  0  0  0  0  0
   -5.9373   -2.2774   -4.4051 H   0  0  0  0  0  0  0  0  0  0  0  0
   -4.3980   -3.5453   -5.8403 H   0  0  0  0  0  0  0  0  0  0  0  0
   -1.9578   -3.4858   -5.3809 H   0  0  0  0  0  0  0  0  0  0  0  0
   -1.0975   -2.2504   -3.4704 H   0  0  0  0  0  0  0  0  0  0  0  0
   -2.4591   -3.8703   -1.3009 H   0  0  0  0  0  0  0  0  0  0  0  0
   -2.4905   -6.2436   -1.9133 H   0  0  0  0  0  0  0  0  0  0  0  0
   -1.2888   -8.3767   -2.2198 H   0  0  0  0  0  0  0  0  0  0  0  0
    1.1724   -8.4741   -1.9138 H   0  0  0  0  0  0  0  0  0  0  0  0
    2.4253   -6.4396   -1.3029 H   0  0  0  0  0  0  0  0  0  0  0  0
    2.4288   -4.0578   -0.6934 H   0  0  0  0  0  0  0  0  0  0  0  0
    1.7804   -2.3930   -3.1151 H   0  0  0  0  0  0  0  0  0  0  0  0
    3.0026   -3.7250   -4.7426 H   0  0  0  0  0  0  0  0  0  0  0  0
    5.4709   -3.9495   -4.5802 H   0  0  0  0  0  0  0  0  0  0  0  0
    6.6880   -2.7449   -2.8179 H   0  0  0  0  0  0  0  0  0  0  0  0
    6.7225   -1.1819   -1.0017 H   0  0  0  0  0  0  0  0  0  0  0  0
    6.8595    0.7056    0.4557 H   0  0  0  0  0  0  0  0  0  0  0  0
    7.3654    4.5646    2.9981 H   0  0  0  0  0  0  0  0  0  0  0  0
    6.4485    6.5798    4.1015 H   0  0  0  0  0  0  0  0  0  0  0  0
    4.0043    7.0264    4.0382 H   0  0  0  0  0  0  0  0  0  0  0  0
    2.4979    5.4522    2.8704 H   0  0  0  0  0  0  0  0  0  0  0  0
    2.2007    3.3527    1.5498 H   0  0  0  0  0  0  0  0  0  0  0  0
    1.9880    1.3077    0.2115 H   0  0  0  0  0  0  0  0  0  0  0  0
    2.2099   -0.6199    2.0766 H   0  0  0  0  0  0  0  0  0  0  0  0
    2.0174    0.5903    4.2120 H   0  0  0  0  0  0  0  0  0  0  0  0
    0.5887    1.5604    5.9728 H   0  0  0  0  0  0  0  0  0  0  0  0
   -1.8742    1.6317    5.6800 H   0  0  0  0  0  0  0  0  0  0  0  0
   -2.9043    0.7270    3.6294 H   0  0  0  0  0  0  0  0  0  0  0  0
   -2.6602   -0.4718    1.4952 H   0  0  0  0  0  0  0  0  0  0  0  0
   -1.8986    1.4414   -0.2206 H   0  0  0  0  0  0  0  0  0  0  0  0
   -2.3155    3.4772    1.0867 H   0  0  0  0  0  0  0  0  0  0  0  0
   -2.8064    5.5673    2.3606 H   0  0  0  0  0  0  0  0  0  0  0  0
  1  2  4  0
  2  3  4  0
  3  4  4  0
  4  5  4  0
  5  6  4  0
  6  7  4  0
  7  8  4  0
  8  9  4  0
  9 10  4  0
 10 11  4  0
 11 12  4  0
 12 13  4  0
 13 14  4  0
 14 15  4  0
 15 16  4  0
 16 17  1  0
 17 18  4  0
 18 19  4  0
 19 20  4  0
 20 21  4  0
 21 22  4  0
 22 23  4  0
 23 24  4  0
 24 25  4  0
 25 26  4  0
 26 27  4  0
 27 28  4  0
 28 29  1  0
 29 30  4  0
 30 31  4  0
 31 32  4  0
 32 33  4  0
 33 34  4  0
 34 35  4  0
 35 36  4  0
 36 37  4  0
 37 38  4  0
 38 39  4  0
 39 40  4  0
 40 41  4  0
 41 42  4  0
 42 43  4  0
 43 44  4  0
 44 45  4  0
 45 46  4  0
 46 47  4  0
 47 48  4  0
 48 49  4  0
 49 50  4  0
 28 51  4  0
 51 52  4  0
 52 53  4  0
 53 54  4  0
 54 55  4  0
 55 56  4  0
 56 57  4  0
 57 58  4  0
 58 59  4  0
 59 60  4  0
 16 61  4  0
 61 62  4  0
 62 63  4  0
 63 64  4  0
 64 65  4  0
 65 66  4  0
 66  1  4  0
 65  4  4  0
 63  6  4  0
 61  8  4  0
 15 10  4  0
 60 17  4  0
 27 18  4  0
 50 29  4  0
 60 51  4  0
 25 20  4  0
 35 30  4  0
 50 37  4  0
 58 53  4  0
 48 39  4  0
 46 41  4  0
  1 67  1  0
  2 68  1  0
  3 69  1  0
  7 70  1  0
  9 71  1  0
 11 72  1  0
 12 73  1  0
 13 74  1  0
 14 75  1  0
 19 76  1  0
 21 77  1  0
 22 78  1  0
 23 79  1  0
 24 80  1  0
 26 81  1  0
 31 82  1  0
 32 83  1  0
 33 84  1  0
 34 85  1  0
 36 86  1  0
 38 87  1  0
 42 88  1  0
 43 89  1  0
 44 90  1  0
 45 91  1  0
 47 92  1  0
 49 93  1  0
 52 94  1  0
 54 95  1  0
 55 96  1  0
 56 97  1  0
 57 98  1  0
 59 99  1  0
 62100  1  0
 64101  1  0
 66102  1  0
M  END
