
     RDKit          3D

102116  0  0  0  0  0  0  0  0999 V2000
   -4.6820    7.7704    1.4145 C   0  0  0  0  0  0  0  0  0  0  0  0
   -6.0496    7.5731    1.5657 C   0  0  0  0  0  0  0  0  0  0  0  0
   -6.5777    6.2802    1.4973 C   0  0  0  0  0  0  0  0  0  0  0  0
   -5.7712    5.1705    1.2802 C   0  0  0  0  0  0  0  0  0  0  0  0
   -6.3298    3.9485    1.2227 N   0  0  0  0  0  0  0  0  0  0  0  0
   -5.5455    2.8763    1.0125 C   0  0  0  0  0  0  0  0  0  0  0  0
   -6.1210    1.6146    0.9527 C   0  0  0  0  0  0  0  0  0  0  0  0
   -5.3615    0.4497    0.7389 C   0  0  0  0  0  0  0  0  0  0  0  0
   -5.9590   -0.8187    0.6839 C   0  0  0  0  0  0  0  0  0  0  0  0
   -5.2002   -1.9831    0.4759 C   0  0  0  0  0  0  0  0  0  0  0  0
   -5.8320   -3.2351    0.4305 C   0  0  0  0  0  0  0  0  0  0  0  0
   -5.1002   -4.4013    0.2284 C   0  0  0  0  0  0  0  0  0  0  0  0
   -3.7216   -4.3303    0.0683 C   0  0  0  0  0  0  0  0  0  0  0  0
   -3.0503   -3.0922    0.1068 C   0  0  0  0  0  0  0  0  0  0  0  0
   -1.5704   -3.0963   -0.0722 C   0  0  0  0  0  0  0  0  0  0  0  0
   -0.7220   -3.2149    1.0728 C   0  0  0  0  0  0  0  0  0  0  0  0
   -1.2325   -3.2853    2.3977 C   0  0  0  0  0  0  0  0  0  0  0  0
   -0.4135   -3.3905    3.5332 C   0  0  0  0  0  0  0  0  0  0  0  0
   -0.9473   -3.4525    4.8326 C   0  0  0  0  0  0  0  0  0  0  0  0
   -0.1095   -3.5519    5.9446 C   0  0  0  0  0  0  0  0  0  0  0  0
    1.2702   -3.5898    5.7710 C   0  0  0  0  0  0  0  0  0  0  0  0
    1.8105   -3.5295    4.4857 C   0  0  0  0  0  0  0  0  0  0  0  0
    0.9757   -3.4315    3.3590 C   0  0  0  0  0  0  0  0  0  0  0  0
    1.4945   -3.3726    2.0565 C   0  0  0  0  0  0  0  0  0  0  0  0
    0.6791   -3.2663    0.8978 C   0  0  0  0  0  0  0  0  0  0  0  0
    1.2276   -3.2111   -0.4208 C   0  0  0  0  0  0  0  0  0  0  0  0
    2.7005   -3.3393   -0.6111 C   0  0  0  0  0  0  0  0  0  0  0  0
    3.2346   -4.6344   -0.7600 C   0  0  0  0  0  0  0  0  0  0  0  0
    4.5979   -4.8293   -0.9477 C   0  0  0  0  0  0  0  0  0  0  0  0
    5.4516   -3.7316   -0.9917 C   0  0  0  0  0  0  0  0  0  0  0  0
    4.9577   -2.4263   -0.8481 C   0  0  0  0  0  0  0  0  0  0  0  0
    5.8371   -1.3323   -0.8990 C   0  0  0  0  0  0  0  0  0  0  0  0
    5.3792   -0.0138   -0.7597 C   0  0  0  0  0  0  0  0  0  0  0  0
    6.2604    1.0806   -0.8118 C   0  0  0  0  0  0  0  0  0  0  0  0
    5.8235    2.3902   -0.6761 C   0  0  0  0  0  0  0  0  0  0  0  0
    6.7201    3.3889   -0.7359 N   0  0  0  0  0  0  0  0  0  0  0  0
    6.2987    4.6590   -0.6037 C   0  0  0  0  0  0  0  0  0  0  0  0
    7.2229    5.6935   -0.6644 C   0  0  0  0  0  0  0  0  0  0  0  0
    6.8402    7.0320   -0.5331 C   0  0  0  0  0  0  0  0  0  0  0  0
    5.5022    7.3527   -0.3358 C   0  0  0  0  0  0  0  0  0  0  0  0
    4.5538    6.3343   -0.2708 C   0  0  0  0  0  0  0  0  0  0  0  0
    4.9453    4.9897   -0.4037 C   0  0  0  0  0  0  0  0  0  0  0  0
    4.0208    3.9416   -0.3434 C   0  0  0  0  0  0  0  0  0  0  0  0
    4.4506    2.6171   -0.4798 C   0  0  0  0  0  0  0  0  0  0  0  0
    3.5536    1.5358   -0.4250 C   0  0  0  0  0  0  0  0  0  0  0  0
    4.0080    0.2166   -0.5639 C   0  0  0  0  0  0  0  0  0  0  0  0
    3.1269   -0.8768   -0.5129 C   0  0  0  0  0  0  0  0  0  0  0  0
    3.5719   -2.2119   -0.6533 C   0  0  0  0  0  0  0  0  0  0  0  0
    0.3810   -3.0614   -1.5626 C   0  0  0  0  0  0  0  0  0  0  0  0
    0.8955   -2.9679   -2.8839 C   0  0  0  0  0  0  0  0  0  0  0  0
    0.0823   -2.8136   -4.0168 C   0  0  0  0  0  0  0  0  0  0  0  0
    0.6236   -2.7152   -5.3106 C   0  0  0  0  0  0  0  0  0  0  0  0
   -0.2066   -2.5623   -6.4216 C   0  0  0  0  0  0  0  0  0  0  0  0
   -1.5861   -2.5038   -6.2515 C   0  0  0  0  0  0  0  0  0  0  0  0
   -2.1333   -2.5989   -4.9710 C   0  0  0  0  0  0  0  0  0  0  0  0
   -1.3062   -2.7544   -3.8451 C   0  0  0  0  0  0  0  0  0  0  0  0
   -1.8302   -2.8508   -2.5462 C   0  0  0  0  0  0  0  0  0  0  0  0
   -1.0196   -3.0021   -1.3885 C   0  0  0  0  0  0  0  0  0  0  0  0
   -3.7968   -1.8942    0.3133 C   0  0  0  0  0  0  0  0  0  0  0  0
   -3.2109   -0.6075    0.3673 C   0  0  0  0  0  0  0  0  0  0  0  0
   -3.9709    0.5564    0.5779 C   0  0  0  0  0  0  0  0  0  0  0  0
   -3.3770    1.8257    0.6336 C   0  0  0  0  0  0  0  0  0  0  0  0
   -4.1537    2.9784    0.8494 C   0  0  0  0  0  0  0  0  0  0  0  0
   -3.5816    4.2539    0.9103 C   0  0  0  0  0  0  0  0  0  0  0  0
   -4.3873    5.3766    1.1281 C   0  0  0  0  0  0  0  0  0  0  0  0
   -3.8497    6.6748    1.1959 C   0  0  0  0  0  0  0  0  0  0  0  0
   -4.2647    8.7725    1.4666 H   0  0  0  0  0  0  0  0  0  0  0  0
   -6.7099    8.4193    1.7369 H   0  0  0  0  0  0  0  0  0  0  0  0
   -7.6486    6.1333    1.6166 H   0  0  0  0  0  0  0  0  0  0  0  0
   -7.1996    1.5435    1.0796 H   0  0  0  0  0  0  0  0  0  0  0  0
   -7.0382   -0.8999    0.8085 H   0  0  0  0  0  0  0  0  0  0  0  0
   -6.9105   -3.3121    0.5542 H   0  0  0  0  0  0  0  0  0  0  0  0
   -5.6040   -5.3637    0.1956 H   0  0  0  0  0  0  0  0  0  0  0  0
   -3.1577   -5.2486   -0.0889 H   0  0  0  0  0  0  0  0  0  0  0  0
   -2.3090   -3.2535    2.5614 H   0  0  0  0  0  0  0  0  0  0  0  0
   -2.0239   -3.4220    4.9858 H   0  0  0  0  0  0  0  0  0  0  0  0
   -0.5352   -3.5981    6.9435 H   0  0  0  0  0  0  0  0  0  0  0  0
    1.9267   -3.6658    6.6338 H   0  0  0  0  0  0  0  0  0  0  0  0
    2.8914   -3.5582    4.3663 H   0  0  0  0  0  0  0  0  0  0  0  0
    2.5783   -3.4054    1.9498 H   0  0  0  0  0  0  0  0  0  0  0  0
    2.5742   -5.4996   -0.7295 H   0  0  0  0  0  0  0  0  0  0  0  0
    4.9941   -5.8349   -1.0609 H   0  0  0  0  0  0  0  0  0  0  0  0
    6.5158   -3.9046   -1.1411 H   0  0  0  0  0  0  0  0  0  0  0  0
    6.9011   -1.5091   -1.0511 H   0  0  0  0  0  0  0  0  0  0  0  0
    7.3253    0.9146   -0.9632 H   0  0  0  0  0  0  0  0  0  0  0  0
    8.2715    5.4501   -0.8185 H   0  0  0  0  0  0  0  0  0  0  0  0
    7.5901    7.8170   -0.5856 H   0  0  0  0  0  0  0  0  0  0  0  0
    5.1981    8.3912   -0.2330 H   0  0  0  0  0  0  0  0  0  0  0  0
    3.5089    6.5930   -0.1163 H   0  0  0  0  0  0  0  0  0  0  0  0
    2.9669    4.1583   -0.1891 H   0  0  0  0  0  0  0  0  0  0  0  0
    2.4922    1.7240   -0.2741 H   0  0  0  0  0  0  0  0  0  0  0  0
    2.0666   -0.6809   -0.3608 H   0  0  0  0  0  0  0  0  0  0  0  0
    1.9720   -3.0092   -3.0461 H   0  0  0  0  0  0  0  0  0  0  0  0
    1.7004   -2.7555   -5.4589 H   0  0  0  0  0  0  0  0  0  0  0  0
    0.2244   -2.4877   -7.4165 H   0  0  0  0  0  0  0  0  0  0  0  0
   -2.2376   -2.3821   -7.1126 H   0  0  0  0  0  0  0  0  0  0  0  0
   -3.2138   -2.5491   -4.8552 H   0  0  0  0  0  0  0  0  0  0  0  0
   -2.9134   -2.7992   -2.4407 H   0  0  0  0  0  0  0  0  0  0  0  0
   -2.1336   -0.5070    0.2449 H   0  0  0  0  0  0  0  0  0  0  0  0
   -2.2998    1.9191    0.5093 H   0  0  0  0  0  0  0  0  0  0  0  0
   -2.5081    4.3729    0.7876 H   0  0  0  0  0  0  0  0  0  0  0  0
   -2.7808    6.8369    1.0787 H   0  0  0  0  0  0  0  0  0  0  0  0
  1  2  4  0
  2  3  4  0
  3  4  4  0
  4  5  4  0
  5  6  4  0
  6  7  4  0
  7  8  4  0
  8  9  4  0
  9 10  4  0
 10 11  4  0
 11 12  4  0
 12 13  4  0
 13 14  4  0
 14 15  1  0
 15 16  4  0
 16 17  4  0
 17 18  4  0
 18 19  4  0
 19 20  4  0
 20 21  4  0
 21 22  4  0
 22 23  4  0
 23 24  4  0
 24 25  4  0
 25 26  4  0
 26 27  1  0
 27 28  4  0
 28 29  4  0
 29 30  4  0
 30 31  4  0
 31 32  4  0
 32 33  4  0
 33 34  4  0
 34 35  4  0
 35 36  4  0
 36 37  4  0
 37 38  4  0
 38 39  4  0
 39 40  4  0
 40 41  4  0
 41 42  4  0
 42 43  4  0
 43 44  4  0
 44 45  4  0
 45 46  4  0
 46 47  4  0
 47 48  4  0
 26 49  4  0
 49 50  4  0
 50 51  4  0
 51 52  4  0
 52 53  4  0
 53 54  4  0
 54 55  4  0
 55 56  4  0
 56 57  4  0
 57 58  4  0
 14 59  4  0
 59 60  4  0
 60 61  4  0
 61 62  4  0
 62 63  4  0
 63 64  4  0
 64 65  4  0
 65 66  4  0
 66  1  4  0
 65  4  4  0
 63  6  4  0
 61  8  4  0
 59 10  4  0
 58 15  4  0
 25 16  4  0
 48 27  4  0
 58 49  4  0
 23 18  4  0
 48 31  4  0
 56 51  4  0
 46 33  4  0
 44 35  4  0
 42 37  4  0
  1 67  1  0
  2 68  1  0
  3 69  1  0
  7 70  1  0
  9 71  1  0
 11 72  1  0
 12 73  1  0
 13 74  1  0
 17 75  1  0
 19 76  1  0
 20 77  1  0
 21 78  1  0
 22 79  1  0
 24 80  1  0
 28 81  1  0
 29 82  1  0
 30 83  1  0
 32 84  1  0
 34 85  1  0
 38 86  1  0
 39 87  1  0
 40 88  1  0
 41 89  1  0
 43 90  1  0
 45 91  1  0
 47 92  1  0
 50 93  1  0
 52 94  1  0
 53 95  1  0
 54 96  1  0
 55 97  1  0
 57 98  1  0
 60 99  1  0
 62100  1  0
 64101  1  0
 66102  1  0
M  END
