
     RDKit          3D

102116  0  0  0  0  0  0  0  0999 V2000
    4.6982    6.0156    1.9144 C   0  0  0  0  0  0  0  0  0  0  0  0
    3.3285    5.9613    1.6833 C   0  0  0  0  0  0  0  0  0  0  0  0
    2.7239    4.7395    1.3753 C   0  0  0  0  0  0  0  0  0  0  0  0
    3.4564    3.5637    1.2929 C   0  0  0  0  0  0  0  0  0  0  0  0
    2.8294    2.4172    0.9914 N   0  0  0  0  0  0  0  0  0  0  0  0
    3.5133    1.2564    0.9006 C   0  0  0  0  0  0  0  0  0  0  0  0
    4.8996    1.2268    1.1268 C   0  0  0  0  0  0  0  0  0  0  0  0
    5.5541    2.4246    1.4430 C   0  0  0  0  0  0  0  0  0  0  0  0
    4.8374    3.6213    1.5292 C   0  0  0  0  0  0  0  0  0  0  0  0
    5.4547    4.8478    1.8383 C   0  0  0  0  0  0  0  0  0  0  0  0
    5.6130    0.0246    1.0324 C   0  0  0  0  0  0  0  0  0  0  0  0
    4.9746   -1.1768    0.7109 C   0  0  0  0  0  0  0  0  0  0  0  0
    5.7191   -2.3659    0.6207 C   0  0  0  0  0  0  0  0  0  0  0  0
    5.1146   -3.5890    0.2986 C   0  0  0  0  0  0  0  0  0  0  0  0
    5.8598   -4.7769    0.2078 C   0  0  0  0  0  0  0  0  0  0  0  0
    5.2397   -5.9855   -0.1113 C   0  0  0  0  0  0  0  0  0  0  0  0
    3.8688   -6.0205   -0.3447 C   0  0  0  0  0  0  0  0  0  0  0  0
    3.1178   -4.8467   -0.2603 C   0  0  0  0  0  0  0  0  0  0  0  0
    3.7283   -3.6226    0.0610 C   0  0  0  0  0  0  0  0  0  0  0  0
    2.9890   -2.4293    0.1506 C   0  0  0  0  0  0  0  0  0  0  0  0
    3.5844   -1.1845    0.4750 C   0  0  0  0  0  0  0  0  0  0  0  0
    2.8586    0.0490    0.5708 C   0  0  0  0  0  0  0  0  0  0  0  0
    1.3831    0.0874    0.3012 C   0  0  0  0  0  0  0  0  0  0  0  0
    0.4601   -0.1267    1.3728 C   0  0  0  0  0  0  0  0  0  0  0  0
    0.8835   -0.3675    2.7083 C   0  0  0  0  0  0  0  0  0  0  0  0
   -0.0076   -0.5889    3.7706 C   0  0  0  0  0  0  0  0  0  0  0  0
    0.4409   -0.8255    5.0822 C   0  0  0  0  0  0  0  0  0  0  0  0
   -0.4672   -1.0392    6.1205 C   0  0  0  0  0  0  0  0  0  0  0  0
   -1.8336   -1.0198    5.8607 C   0  0  0  0  0  0  0  0  0  0  0  0
   -2.2893   -0.7866    4.5627 C   0  0  0  0  0  0  0  0  0  0  0  0
   -1.3832   -0.5693    3.5096 C   0  0  0  0  0  0  0  0  0  0  0  0
   -1.8169   -0.3291    2.1967 C   0  0  0  0  0  0  0  0  0  0  0  0
   -0.9286   -0.1074    1.1099 C   0  0  0  0  0  0  0  0  0  0  0  0
   -1.3919    0.1220   -0.2241 C   0  0  0  0  0  0  0  0  0  0  0  0
   -2.8638    0.0852   -0.5140 C   0  0  0  0  0  0  0  0  0  0  0  0
   -3.4977   -1.1588   -0.8488 C   0  0  0  0  0  0  0  0  0  0  0  0
   -2.8149   -2.3990   -0.9249 C   0  0  0  0  0  0  0  0  0  0  0  0
   -3.4627   -3.6030   -1.2532 C   0  0  0  0  0  0  0  0  0  0  0  0
   -2.7649   -4.8206   -1.3197 C   0  0  0  0  0  0  0  0  0  0  0  0
   -3.4249   -6.0058   -1.6474 C   0  0  0  0  0  0  0  0  0  0  0  0
   -4.7905   -5.9887   -1.9129 C   0  0  0  0  0  0  0  0  0  0  0  0
   -5.4966   -4.7866   -1.8505 C   0  0  0  0  0  0  0  0  0  0  0  0
   -4.8436   -3.5867   -1.5210 C   0  0  0  0  0  0  0  0  0  0  0  0
   -5.5341   -2.3685   -1.4515 C   0  0  0  0  0  0  0  0  0  0  0  0
   -4.8803   -1.1681   -1.1212 C   0  0  0  0  0  0  0  0  0  0  0  0
   -5.6009    0.0276   -1.0618 C   0  0  0  0  0  0  0  0  0  0  0  0
   -4.9790    1.2399   -0.7356 C   0  0  0  0  0  0  0  0  0  0  0  0
   -5.7213    2.4269   -0.6860 C   0  0  0  0  0  0  0  0  0  0  0  0
   -5.1008    3.6360   -0.3643 C   0  0  0  0  0  0  0  0  0  0  0  0
   -5.8105    4.8505   -0.3084 C   0  0  0  0  0  0  0  0  0  0  0  0
   -5.1510    6.0340    0.0158 C   0  0  0  0  0  0  0  0  0  0  0  0
   -3.7868    6.0068    0.2839 C   0  0  0  0  0  0  0  0  0  0  0  0
   -3.0902    4.7956    0.2260 C   0  0  0  0  0  0  0  0  0  0  0  0
   -3.7241    3.6029   -0.0950 C   0  0  0  0  0  0  0  0  0  0  0  0
   -3.0119    2.4649   -0.1406 N   0  0  0  0  0  0  0  0  0  0  0  0
   -3.6023    1.2899   -0.4547 C   0  0  0  0  0  0  0  0  0  0  0  0
   -0.4687    0.3524   -1.2924 C   0  0  0  0  0  0  0  0  0  0  0  0
   -0.8921    0.5929   -2.6276 C   0  0  0  0  0  0  0  0  0  0  0  0
   -0.0022    0.8165   -3.6897 C   0  0  0  0  0  0  0  0  0  0  0  0
   -0.4535    1.0544   -4.9994 C   0  0  0  0  0  0  0  0  0  0  0  0
    0.4518    1.2789   -6.0375 C   0  0  0  0  0  0  0  0  0  0  0  0
    1.8183    1.2679   -5.7784 C   0  0  0  0  0  0  0  0  0  0  0  0
    2.2771    1.0319   -4.4818 C   0  0  0  0  0  0  0  0  0  0  0  0
    1.3732    0.8041   -3.4291 C   0  0  0  0  0  0  0  0  0  0  0  0
    1.8074    0.5656   -2.1162 C   0  0  0  0  0  0  0  0  0  0  0  0
    0.9195    0.3360   -1.0297 C   0  0  0  0  0  0  0  0  0  0  0  0
    5.1748    6.9625    2.1536 H   0  0  0  0  0  0  0  0  0  0  0  0
    2.7243    6.8628    1.7406 H   0  0  0  0  0  0  0  0  0  0  0  0
    1.6519    4.6988    1.1932 H   0  0  0  0  0  0  0  0  0  0  0  0
    6.6267    2.4280    1.6202 H   0  0  0  0  0  0  0  0  0  0  0  0
    6.5255    4.8967    2.0206 H   0  0  0  0  0  0  0  0  0  0  0  0
    6.6874    0.0285    1.2112 H   0  0  0  0  0  0  0  0  0  0  0  0
    6.7923   -2.3412    0.8040 H   0  0  0  0  0  0  0  0  0  0  0  0
    6.9329   -4.7684    0.3847 H   0  0  0  0  0  0  0  0  0  0  0  0
    5.8277   -6.8970   -0.1781 H   0  0  0  0  0  0  0  0  0  0  0  0
    3.3813   -6.9594   -0.5937 H   0  0  0  0  0  0  0  0  0  0  0  0
    2.0470   -4.8925   -0.4471 H   0  0  0  0  0  0  0  0  0  0  0  0
    1.9171   -2.4755   -0.0386 H   0  0  0  0  0  0  0  0  0  0  0  0
    1.9470   -0.3776    2.9397 H   0  0  0  0  0  0  0  0  0  0  0  0
    1.5062   -0.8432    5.3020 H   0  0  0  0  0  0  0  0  0  0  0  0
   -0.1057   -1.2174    7.1293 H   0  0  0  0  0  0  0  0  0  0  0  0
   -2.5452   -1.1825    6.6655 H   0  0  0  0  0  0  0  0  0  0  0  0
   -3.3604   -0.7703    4.3743 H   0  0  0  0  0  0  0  0  0  0  0  0
   -2.8913   -0.3096    2.0234 H   0  0  0  0  0  0  0  0  0  0  0  0
   -1.7451   -2.4336   -0.7222 H   0  0  0  0  0  0  0  0  0  0  0  0
   -1.6968   -4.8525   -1.1150 H   0  0  0  0  0  0  0  0  0  0  0  0
   -2.8717   -6.9402   -1.6948 H   0  0  0  0  0  0  0  0  0  0  0  0
   -5.3072   -6.9100   -2.1684 H   0  0  0  0  0  0  0  0  0  0  0  0
   -6.5638   -4.7935   -2.0610 H   0  0  0  0  0  0  0  0  0  0  0  0
   -6.6030   -2.3568   -1.6592 H   0  0  0  0  0  0  0  0  0  0  0  0
   -6.6688    0.0183   -1.2745 H   0  0  0  0  0  0  0  0  0  0  0  0
   -6.7877    2.4113   -0.8998 H   0  0  0  0  0  0  0  0  0  0  0  0
   -6.8774    4.8788   -0.5180 H   0  0  0  0  0  0  0  0  0  0  0  0
   -5.6991    6.9718    0.0584 H   0  0  0  0  0  0  0  0  0  0  0  0
   -3.2587    6.9224    0.5376 H   0  0  0  0  0  0  0  0  0  0  0  0
   -2.0229    4.7769    0.4364 H   0  0  0  0  0  0  0  0  0  0  0  0
   -1.9559    0.6181   -2.8567 H   0  0  0  0  0  0  0  0  0  0  0  0
   -1.5190    1.0680   -5.2162 H   0  0  0  0  0  0  0  0  0  0  0  0
    0.0887    1.4630   -7.0446 H   0  0  0  0  0  0  0  0  0  0  0  0
    2.5281    1.4435   -6.5821 H   0  0  0  0  0  0  0  0  0  0  0  0
    3.3485    1.0292   -4.2943 H   0  0  0  0  0  0  0  0  0  0  0  0
    2.8815    0.5676   -1.9406 H   0  0  0  0  0  0  0  0  0  0  0  0
  1  2  4  0
  2  3  4  0
  3  4  4  0
  4  5  4  0
  5  6  4  0
  6  7  4  0
  7  8  4  0
  8  9  4  0
  9 10  4  0
  7 11  4  0
 11 12  4  0
 12 13  4  0
 13 14  4  0
 14 15  4  0
 15 16  4  0
 16 17  4  0
 17 18  4  0
 18 19  4  0
 19 20  4  0
 20 21  4  0
 21 22  4  0
 22 23  1  0
 23 24  4  0
 24 25  4  0
 25 26  4  0
 26 27  4  0
 27 28  4  0
 28 29  4  0
 29 30  4  0
 30 31  4  0
 31 32  4  0
 32 33  4  0
 33 34  4  0
 34 35  1  0
 35 36  4  0
 36 37  4  0
 37 38  4  0
 38 39  4  0
 39 40  4  0
 40 41  4  0
 41 42  4  0
 42 43  4  0
 43 44  4  0
 44 45  4  0
 45 46  4  0
 46 47  4  0
 47 48  4  0
 48 49  4  0
 49 50  4  0
 50 51  4  0
 51 52  4  0
 52 53  4  0
 53 54  4  0
 54 55  4  0
 55 56  4  0
 34 57  4  0
 57 58  4  0
 58 59  4  0
 59 60  4  0
 60 61  4  0
 61 62  4  0
 62 63  4  0
 63 64  4  0
 64 65  4  0
 65 66  4  0
 10  1  4  0
 21 12  4  0
 66 23  4  0
  9  4  4  0
 19 14  4  0
 33 24  4  0
 56 35  4  0
 66 57  4  0
 22  6  4  0
 31 26  4  0
 45 36  4  0
 56 47  4  0
 64 59  4  0
 43 38  4  0
 54 49  4  0
  1 67  1  0
  2 68  1  0
  3 69  1  0
  8 70  1  0
 10 71  1  0
 11 72  1  0
 13 73  1  0
 15 74  1  0
 16 75  1  0
 17 76  1  0
 18 77  1  0
 20 78  1  0
 25 79  1  0
 27 80  1  0
 28 81  1  0
 29 82  1  0
 30 83  1  0
 32 84  1  0
 37 85  1  0
 39 86  1  0
 40 87  1  0
 41 88  1  0
 42 89  1  0
 44 90  1  0
 46 91  1  0
 48 92  1  0
 50 93  1  0
 51 94  1  0
 52 95  1  0
 53 96  1  0
 58 97  1  0
 60 98  1  0
 61 99  1  0
 62100  1  0
 63101  1  0
 65102  1  0
M  END
