
     RDKit          3D

 92106  0  0  0  0  0  0  0  0999 V2000
    4.1822    5.7313    4.4598 C   0  0  0  0  0  0  0  0  0  0  0  0
    5.0926    4.7007    4.4818 C   0  0  0  0  0  0  0  0  0  0  0  0
    4.6345    3.5366    3.7777 C   0  0  0  0  0  0  0  0  0  0  0  0
    5.2566    2.2823    3.5665 C   0  0  0  0  0  0  0  0  0  0  0  0
    4.6158    1.2663    2.8332 C   0  0  0  0  0  0  0  0  0  0  0  0
    5.2265    0.0210    2.6203 C   0  0  0  0  0  0  0  0  0  0  0  0
    4.5961   -0.9990    1.8862 C   0  0  0  0  0  0  0  0  0  0  0  0
    3.3174   -0.7868    1.3415 C   0  0  0  0  0  0  0  0  0  0  0  0
    2.7142    0.4739    1.5681 C   0  0  0  0  0  0  0  0  0  0  0  0
    3.3409    1.4959    2.3004 C   0  0  0  0  0  0  0  0  0  0  0  0
    2.7085    2.7342    2.5010 C   0  0  0  0  0  0  0  0  0  0  0  0
    3.3644    3.7392    3.2376 C   0  0  0  0  0  0  0  0  0  0  0  0
    2.7712    5.3168    3.5971 S   0  0  0  0  0  0  0  0  0  0  0  0
    2.6874   -1.8286    0.5915 C   0  0  0  0  0  0  0  0  0  0  0  0
    1.3412   -1.6565   -0.0230 C   0  0  0  0  0  0  0  0  0  0  0  0
    0.1743   -2.0097    0.7234 C   0  0  0  0  0  0  0  0  0  0  0  0
    0.2426   -2.5340    2.0426 C   0  0  0  0  0  0  0  0  0  0  0  0
   -0.8921   -2.8780    2.7932 C   0  0  0  0  0  0  0  0  0  0  0  0
   -0.7919   -3.3905    4.0984 C   0  0  0  0  0  0  0  0  0  0  0  0
   -1.9364   -3.7232    4.8241 C   0  0  0  0  0  0  0  0  0  0  0  0
   -3.1930   -3.5483    4.2539 C   0  0  0  0  0  0  0  0  0  0  0  0
   -3.3034   -3.0407    2.9588 C   0  0  0  0  0  0  0  0  0  0  0  0
   -2.1571   -2.7017    2.2191 C   0  0  0  0  0  0  0  0  0  0  0  0
   -2.2405   -2.1872    0.9161 C   0  0  0  0  0  0  0  0  0  0  0  0
   -1.1012   -1.8304    0.1449 C   0  0  0  0  0  0  0  0  0  0  0  0
   -1.2057   -1.2958   -1.1775 C   0  0  0  0  0  0  0  0  0  0  0  0
   -2.5523   -1.0937   -1.7826 C   0  0  0  0  0  0  0  0  0  0  0  0
   -3.1284   -2.1422   -2.5570 C   0  0  0  0  0  0  0  0  0  0  0  0
   -2.4553   -3.7023   -2.9136 S   0  0  0  0  0  0  0  0  0  0  0  0
   -3.8070   -4.1730   -3.8323 C   0  0  0  0  0  0  0  0  0  0  0  0
   -4.7607   -3.1866   -3.8812 C   0  0  0  0  0  0  0  0  0  0  0  0
   -4.3855   -2.0089   -3.1502 C   0  0  0  0  0  0  0  0  0  0  0  0
   -5.0884   -0.7972   -2.9645 C   0  0  0  0  0  0  0  0  0  0  0  0
   -4.5550    0.2550   -2.2054 C   0  0  0  0  0  0  0  0  0  0  0  0
   -3.2882    0.1203   -1.6099 C   0  0  0  0  0  0  0  0  0  0  0  0
   -2.8037    1.2166   -0.8559 C   0  0  0  0  0  0  0  0  0  0  0  0
   -3.5340    2.4051   -0.6868 C   0  0  0  0  0  0  0  0  0  0  0  0
   -3.0196    3.4698    0.0722 C   0  0  0  0  0  0  0  0  0  0  0  0
   -3.7761    4.6482    0.2209 C   0  0  0  0  0  0  0  0  0  0  0  0
   -3.3335    6.0623    1.1013 S   0  0  0  0  0  0  0  0  0  0  0  0
   -4.7912    6.8536    0.7069 C   0  0  0  0  0  0  0  0  0  0  0  0
   -5.6060    6.0703   -0.0763 C   0  0  0  0  0  0  0  0  0  0  0  0
   -5.0328    4.7871   -0.3684 C   0  0  0  0  0  0  0  0  0  0  0  0
   -5.5366    3.7039   -1.1280 C   0  0  0  0  0  0  0  0  0  0  0  0
   -4.7940    2.5195   -1.2882 C   0  0  0  0  0  0  0  0  0  0  0  0
   -5.2882    1.4431   -2.0403 C   0  0  0  0  0  0  0  0  0  0  0  0
   -0.0384   -0.9384   -1.9224 C   0  0  0  0  0  0  0  0  0  0  0  0
   -0.1054   -0.3941   -3.2338 C   0  0  0  0  0  0  0  0  0  0  0  0
    1.0302   -0.0346   -3.9765 C   0  0  0  0  0  0  0  0  0  0  0  0
    0.9318    0.5030   -5.2714 C   0  0  0  0  0  0  0  0  0  0  0  0
    2.0770    0.8518   -5.9888 C   0  0  0  0  0  0  0  0  0  0  0  0
    3.3332    0.6680   -5.4205 C   0  0  0  0  0  0  0  0  0  0  0  0
    3.4423    0.1353   -4.1356 C   0  0  0  0  0  0  0  0  0  0  0  0
    2.2948   -0.2193   -3.4048 C   0  0  0  0  0  0  0  0  0  0  0  0
    2.3768   -0.7552   -2.1110 C   0  0  0  0  0  0  0  0  0  0  0  0
    1.2368   -1.1216   -1.3451 C   0  0  0  0  0  0  0  0  0  0  0  0
    3.3760   -3.0639    0.4183 C   0  0  0  0  0  0  0  0  0  0  0  0
    2.8409   -4.4750   -0.4393 S   0  0  0  0  0  0  0  0  0  0  0  0
    4.2665   -5.3345   -0.0912 C   0  0  0  0  0  0  0  0  0  0  0  0
    5.1438   -4.5887    0.6564 C   0  0  0  0  0  0  0  0  0  0  0  0
    4.6454   -3.2765    0.9598 C   0  0  0  0  0  0  0  0  0  0  0  0
    5.2443   -2.2284    1.6943 C   0  0  0  0  0  0  0  0  0  0  0  0
    4.2784    6.7098    4.9103 H   0  0  0  0  0  0  0  0  0  0  0  0
    6.0509    4.7719    4.9815 H   0  0  0  0  0  0  0  0  0  0  0  0
    6.2470    2.1131    3.9822 H   0  0  0  0  0  0  0  0  0  0  0  0
    6.2174   -0.1574    3.0354 H   0  0  0  0  0  0  0  0  0  0  0  0
    1.7229    0.6715    1.1606 H   0  0  0  0  0  0  0  0  0  0  0  0
    1.7186    2.9244    2.0936 H   0  0  0  0  0  0  0  0  0  0  0  0
    1.2137   -2.6821    2.5127 H   0  0  0  0  0  0  0  0  0  0  0  0
    0.1834   -3.5334    4.5583 H   0  0  0  0  0  0  0  0  0  0  0  0
   -1.8453   -4.1183    5.8324 H   0  0  0  0  0  0  0  0  0  0  0  0
   -4.0872   -3.8060    4.8148 H   0  0  0  0  0  0  0  0  0  0  0  0
   -4.2933   -2.9100    2.5272 H   0  0  0  0  0  0  0  0  0  0  0  0
   -3.2366   -2.0605    0.4943 H   0  0  0  0  0  0  0  0  0  0  0  0
   -3.8396   -5.1507   -4.2934 H   0  0  0  0  0  0  0  0  0  0  0  0
   -5.6949   -3.2972   -4.4179 H   0  0  0  0  0  0  0  0  0  0  0  0
   -6.0679   -0.6922   -3.4270 H   0  0  0  0  0  0  0  0  0  0  0  0
   -1.8252    1.1464   -0.3812 H   0  0  0  0  0  0  0  0  0  0  0  0
   -2.0440    3.3930    0.5457 H   0  0  0  0  0  0  0  0  0  0  0  0
   -4.9827    7.8549    1.0675 H   0  0  0  0  0  0  0  0  0  0  0  0
   -6.5760    6.3973   -0.4300 H   0  0  0  0  0  0  0  0  0  0  0  0
   -6.5154    3.8009   -1.5917 H   0  0  0  0  0  0  0  0  0  0  0  0
   -6.2678    1.5330   -2.5079 H   0  0  0  0  0  0  0  0  0  0  0  0
   -1.0760   -0.2408   -3.7035 H   0  0  0  0  0  0  0  0  0  0  0  0
   -0.0431    0.6532   -5.7295 H   0  0  0  0  0  0  0  0  0  0  0  0
    1.9866    1.2656   -6.9894 H   0  0  0  0  0  0  0  0  0  0  0  0
    4.2280    0.9381   -5.9746 H   0  0  0  0  0  0  0  0  0  0  0  0
    4.4317   -0.0030   -3.7053 H   0  0  0  0  0  0  0  0  0  0  0  0
    3.3728   -0.8884   -1.6910 H   0  0  0  0  0  0  0  0  0  0  0  0
    4.3952   -6.3458   -0.4517 H   0  0  0  0  0  0  0  0  0  0  0  0
    6.1087   -4.9615    0.9773 H   0  0  0  0  0  0  0  0  0  0  0  0
    6.2348   -2.3923    2.1144 H   0  0  0  0  0  0  0  0  0  0  0  0
  1  2  4  0
  2  3  4  0
  3  4  4  0
  4  5  4  0
  5  6  4  0
  6  7  4  0
  7  8  4  0
  8  9  4  0
  9 10  4  0
 10 11  4  0
 11 12  4  0
 12 13  4  0
  8 14  4  0
 14 15  1  0
 15 16  4  0
 16 17  4  0
 17 18  4  0
 18 19  4  0
 19 20  4  0
 20 21  4  0
 21 22  4  0
 22 23  4  0
 23 24  4  0
 24 25  4  0
 25 26  4  0
 26 27  1  0
 27 28  4  0
 28 29  4  0
 29 30  4  0
 30 31  4  0
 31 32  4  0
 32 33  4  0
 33 34  4  0
 34 35  4  0
 35 36  4  0
 36 37  4  0
 37 38  4  0
 38 39  4  0
 39 40  4  0
 40 41  4  0
 41 42  4  0
 42 43  4  0
 43 44  4  0
 44 45  4  0
 45 46  4  0
 26 47  4  0
 47 48  4  0
 48 49  4  0
 49 50  4  0
 50 51  4  0
 51 52  4  0
 52 53  4  0
 53 54  4  0
 54 55  4  0
 55 56  4  0
 14 57  4  0
 57 58  4  0
 58 59  4  0
 59 60  4  0
 60 61  4  0
 61 62  4  0
 13  1  4  0
 56 15  4  0
 61 57  4  0
 12  3  4  0
 25 16  4  0
 35 27  4  0
 45 37  4  0
 56 47  4  0
 10  5  4  0
 23 18  4  0
 32 28  4  0
 46 34  4  0
 54 49  4  0
 62  7  4  0
 43 39  4  0
  1 63  1  0
  2 64  1  0
  4 65  1  0
  6 66  1  0
  9 67  1  0
 11 68  1  0
 17 69  1  0
 19 70  1  0
 20 71  1  0
 21 72  1  0
 22 73  1  0
 24 74  1  0
 30 75  1  0
 31 76  1  0
 33 77  1  0
 36 78  1  0
 38 79  1  0
 41 80  1  0
 42 81  1  0
 44 82  1  0
 46 83  1  0
 48 84  1  0
 50 85  1  0
 51 86  1  0
 52 87  1  0
 53 88  1  0
 55 89  1  0
 59 90  1  0
 60 91  1  0
 62 92  1  0
M  END
