
     RDKit          3D

 92106  0  0  0  0  0  0  0  0999 V2000
  -14.7843    0.5677   -0.1100 C   0  0  0  0  0  0  0  0  0  0  0  0
  -13.7980    1.0478    0.7192 C   0  0  0  0  0  0  0  0  0  0  0  0
  -12.4781    0.6974    0.2771 C   0  0  0  0  0  0  0  0  0  0  0  0
  -11.2112    0.9905    0.8369 C   0  0  0  0  0  0  0  0  0  0  0  0
  -10.0250    0.5397    0.2297 C   0  0  0  0  0  0  0  0  0  0  0  0
  -10.0946   -0.2143   -0.9536 C   0  0  0  0  0  0  0  0  0  0  0  0
   -8.9049   -0.6605   -1.5520 C   0  0  0  0  0  0  0  0  0  0  0  0
   -7.6476   -0.3724   -0.9967 C   0  0  0  0  0  0  0  0  0  0  0  0
   -6.4679   -0.8274   -1.6081 C   0  0  0  0  0  0  0  0  0  0  0  0
   -5.2212   -0.5211   -1.0292 C   0  0  0  0  0  0  0  0  0  0  0  0
   -3.6677   -0.9775   -1.6163 S   0  0  0  0  0  0  0  0  0  0  0  0
   -2.8653   -0.1850   -0.3334 C   0  0  0  0  0  0  0  0  0  0  0  0
   -1.3901   -0.1992   -0.2719 C   0  0  0  0  0  0  0  0  0  0  0  0
   -0.7321   -1.2487    0.4400 C   0  0  0  0  0  0  0  0  0  0  0  0
   -1.4380   -2.2918    1.1014 C   0  0  0  0  0  0  0  0  0  0  0  0
   -0.8018   -3.3268    1.8042 C   0  0  0  0  0  0  0  0  0  0  0  0
   -1.5289   -4.3441    2.4471 C   0  0  0  0  0  0  0  0  0  0  0  0
   -0.8721   -5.3628    3.1387 C   0  0  0  0  0  0  0  0  0  0  0  0
    0.5176   -5.3766    3.1954 C   0  0  0  0  0  0  0  0  0  0  0  0
    1.2486   -4.3715    2.5606 C   0  0  0  0  0  0  0  0  0  0  0  0
    0.5975   -3.3399    1.8614 C   0  0  0  0  0  0  0  0  0  0  0  0
    1.3088   -2.3166    1.2144 C   0  0  0  0  0  0  0  0  0  0  0  0
    0.6788   -1.2603    0.4987 C   0  0  0  0  0  0  0  0  0  0  0  0
    1.4103   -0.2201   -0.1539 C   0  0  0  0  0  0  0  0  0  0  0  0
    2.8857   -0.2272   -0.0883 C   0  0  0  0  0  0  0  0  0  0  0  0
    3.7068    0.3459    0.8593 C   0  0  0  0  0  0  0  0  0  0  0  0
    5.1013    0.1409    0.5910 C   0  0  0  0  0  0  0  0  0  0  0  0
    6.2479    0.5631    1.3059 C   0  0  0  0  0  0  0  0  0  0  0  0
    7.5432    0.2492    0.8557 C   0  0  0  0  0  0  0  0  0  0  0  0
    8.6813    0.6688    1.5644 C   0  0  0  0  0  0  0  0  0  0  0  0
    9.9785    0.3597    1.1227 C   0  0  0  0  0  0  0  0  0  0  0  0
   10.1419   -0.3868   -0.0559 C   0  0  0  0  0  0  0  0  0  0  0  0
    9.0034   -0.8051   -0.7645 C   0  0  0  0  0  0  0  0  0  0  0  0
    7.7059   -0.4966   -0.3235 C   0  0  0  0  0  0  0  0  0  0  0  0
    6.5778   -0.9229   -1.0438 C   0  0  0  0  0  0  0  0  0  0  0  0
    5.2892   -0.5985   -0.5761 C   0  0  0  0  0  0  0  0  0  0  0  0
    3.7859   -1.0218   -1.3035 S   0  0  0  0  0  0  0  0  0  0  0  0
   11.4325   -0.7048   -0.5102 C   0  0  0  0  0  0  0  0  0  0  0  0
   12.5550   -0.2703    0.2214 C   0  0  0  0  0  0  0  0  0  0  0  0
   14.2132   -0.5495   -0.1585 S   0  0  0  0  0  0  0  0  0  0  0  0
   14.7487    0.3052    1.2159 C   0  0  0  0  0  0  0  0  0  0  0  0
   13.6996    0.7971    1.9565 C   0  0  0  0  0  0  0  0  0  0  0  0
   12.4194    0.4727    1.3941 C   0  0  0  0  0  0  0  0  0  0  0  0
   11.1121    0.7845    1.8391 C   0  0  0  0  0  0  0  0  0  0  0  0
    0.7509    0.8416   -0.8479 C   0  0  0  0  0  0  0  0  0  0  0  0
    1.4533    1.9018   -1.4861 C   0  0  0  0  0  0  0  0  0  0  0  0
    0.8141    2.9483   -2.1697 C   0  0  0  0  0  0  0  0  0  0  0  0
    1.5370    3.9806   -2.7926 C   0  0  0  0  0  0  0  0  0  0  0  0
    0.8765    5.0083   -3.4674 C   0  0  0  0  0  0  0  0  0  0  0  0
   -0.5132    5.0165   -3.5275 C   0  0  0  0  0  0  0  0  0  0  0  0
   -1.2405    3.9966   -2.9125 C   0  0  0  0  0  0  0  0  0  0  0  0
   -0.5849    2.9567   -2.2300 C   0  0  0  0  0  0  0  0  0  0  0  0
   -1.2923    1.9189   -1.6040 C   0  0  0  0  0  0  0  0  0  0  0  0
   -0.6596    0.8513   -0.9079 C   0  0  0  0  0  0  0  0  0  0  0  0
   -3.7567    0.4096    0.5340 C   0  0  0  0  0  0  0  0  0  0  0  0
   -5.1251    0.2264    0.1439 C   0  0  0  0  0  0  0  0  0  0  0  0
   -6.3229    0.6762    0.7493 C   0  0  0  0  0  0  0  0  0  0  0  0
   -7.5780    0.3819    0.1863 C   0  0  0  0  0  0  0  0  0  0  0  0
   -8.7676    0.8291    0.7852 C   0  0  0  0  0  0  0  0  0  0  0  0
  -11.3440   -0.5124   -1.5219 C   0  0  0  0  0  0  0  0  0  0  0  0
  -12.5202   -0.0526   -0.8982 C   0  0  0  0  0  0  0  0  0  0  0  0
  -14.1417   -0.3064   -1.4250 S   0  0  0  0  0  0  0  0  0  0  0  0
  -15.8538    0.6887   -0.0062 H   0  0  0  0  0  0  0  0  0  0  0  0
  -14.0068    1.6281    1.6095 H   0  0  0  0  0  0  0  0  0  0  0  0
  -11.1681    1.5746    1.7534 H   0  0  0  0  0  0  0  0  0  0  0  0
   -8.9586   -1.2455   -2.4692 H   0  0  0  0  0  0  0  0  0  0  0  0
   -6.5061   -1.4122   -2.5237 H   0  0  0  0  0  0  0  0  0  0  0  0
   -2.5266   -2.3077    1.0722 H   0  0  0  0  0  0  0  0  0  0  0  0
   -2.6162   -4.3490    2.4106 H   0  0  0  0  0  0  0  0  0  0  0  0
   -1.4462   -6.1438    3.6301 H   0  0  0  0  0  0  0  0  0  0  0  0
    1.0339   -6.1686    3.7315 H   0  0  0  0  0  0  0  0  0  0  0  0
    2.3349   -4.3978    2.6132 H   0  0  0  0  0  0  0  0  0  0  0  0
    2.3959   -2.3524    1.2743 H   0  0  0  0  0  0  0  0  0  0  0  0
    3.3278    0.8953    1.7130 H   0  0  0  0  0  0  0  0  0  0  0  0
    6.1121    1.1396    2.2182 H   0  0  0  0  0  0  0  0  0  0  0  0
    8.5557    1.2482    2.4779 H   0  0  0  0  0  0  0  0  0  0  0  0
    9.1308   -1.3831   -1.6790 H   0  0  0  0  0  0  0  0  0  0  0  0
    6.6876   -1.4998   -1.9586 H   0  0  0  0  0  0  0  0  0  0  0  0
   11.5753   -1.2824   -1.4199 H   0  0  0  0  0  0  0  0  0  0  0  0
   15.8063    0.4069    1.4169 H   0  0  0  0  0  0  0  0  0  0  0  0
   13.8365    1.3679    2.8666 H   0  0  0  0  0  0  0  0  0  0  0  0
   10.9950    1.3635    2.7522 H   0  0  0  0  0  0  0  0  0  0  0  0
    2.5418    1.9204   -1.4566 H   0  0  0  0  0  0  0  0  0  0  0  0
    2.6243    3.9880   -2.7571 H   0  0  0  0  0  0  0  0  0  0  0  0
    1.4484    5.7985   -3.9466 H   0  0  0  0  0  0  0  0  0  0  0  0
   -1.0324    5.8131   -4.0539 H   0  0  0  0  0  0  0  0  0  0  0  0
   -2.3268    4.0155   -2.9708 H   0  0  0  0  0  0  0  0  0  0  0  0
   -2.3792    1.9505   -1.6682 H   0  0  0  0  0  0  0  0  0  0  0  0
   -3.4455    0.9613    1.4132 H   0  0  0  0  0  0  0  0  0  0  0  0
   -6.2596    1.2603    1.6647 H   0  0  0  0  0  0  0  0  0  0  0  0
   -8.7140    1.4138    1.7023 H   0  0  0  0  0  0  0  0  0  0  0  0
  -11.4139   -1.0945   -2.4372 H   0  0  0  0  0  0  0  0  0  0  0  0
  1  2  4  0
  2  3  4  0
  3  4  4  0
  4  5  4  0
  5  6  4  0
  6  7  4  0
  7  8  4  0
  8  9  4  0
  9 10  4  0
 10 11  4  0
 11 12  4  0
 12 13  1  0
 13 14  4  0
 14 15  4  0
 15 16  4  0
 16 17  4  0
 17 18  4  0
 18 19  4  0
 19 20  4  0
 20 21  4  0
 21 22  4  0
 22 23  4  0
 23 24  4  0
 24 25  1  0
 25 26  4  0
 26 27  4  0
 27 28  4  0
 28 29  4  0
 29 30  4  0
 30 31  4  0
 31 32  4  0
 32 33  4  0
 33 34  4  0
 34 35  4  0
 35 36  4  0
 36 37  4  0
 32 38  4  0
 38 39  4  0
 39 40  4  0
 40 41  4  0
 41 42  4  0
 42 43  4  0
 43 44  4  0
 24 45  4  0
 45 46  4  0
 46 47  4  0
 47 48  4  0
 48 49  4  0
 49 50  4  0
 50 51  4  0
 51 52  4  0
 52 53  4  0
 53 54  4  0
 12 55  4  0
 55 56  4  0
 56 57  4  0
 57 58  4  0
 58 59  4  0
  6 60  4  0
 60 61  4  0
 61 62  4  0
 62  1  4  0
 61  3  4  0
 59  5  4  0
 58  8  4  0
 56 10  4  0
 54 13  4  0
 23 14  4  0
 37 25  4  0
 43 39  4  0
 54 45  4  0
 21 16  4  0
 36 27  4  0
 52 47  4  0
 34 29  4  0
 44 31  4  0
  1 63  1  0
  2 64  1  0
  4 65  1  0
  7 66  1  0
  9 67  1  0
 15 68  1  0
 17 69  1  0
 18 70  1  0
 19 71  1  0
 20 72  1  0
 22 73  1  0
 26 74  1  0
 28 75  1  0
 30 76  1  0
 33 77  1  0
 35 78  1  0
 38 79  1  0
 41 80  1  0
 42 81  1  0
 44 82  1  0
 46 83  1  0
 48 84  1  0
 49 85  1  0
 50 86  1  0
 51 87  1  0
 53 88  1  0
 55 89  1  0
 57 90  1  0
 59 91  1  0
 60 92  1  0
M  END
