
     RDKit          3D

 92106  0  0  0  0  0  0  0  0999 V2000
   -4.7472   -2.8293    6.2747 C   0  0  0  0  0  0  0  0  0  0  0  0
   -3.7458   -2.1823    5.5894 C   0  0  0  0  0  0  0  0  0  0  0  0
   -4.0516   -1.9960    4.1994 C   0  0  0  0  0  0  0  0  0  0  0  0
   -3.3017   -1.3877    3.1644 C   0  0  0  0  0  0  0  0  0  0  0  0
   -3.8008   -1.3141    1.8509 C   0  0  0  0  0  0  0  0  0  0  0  0
   -5.0624   -1.8485    1.5574 C   0  0  0  0  0  0  0  0  0  0  0  0
   -5.5456   -1.7651    0.2427 C   0  0  0  0  0  0  0  0  0  0  0  0
   -4.8003   -1.1635   -0.7861 C   0  0  0  0  0  0  0  0  0  0  0  0
   -5.3260   -1.1050   -2.0840 C   0  0  0  0  0  0  0  0  0  0  0  0
   -4.5819   -0.5099   -3.1181 C   0  0  0  0  0  0  0  0  0  0  0  0
   -5.0658   -0.3510   -4.7654 S   0  0  0  0  0  0  0  0  0  0  0  0
   -3.6158    0.4287   -5.1951 C   0  0  0  0  0  0  0  0  0  0  0  0
   -2.7747    0.5719   -4.1179 C   0  0  0  0  0  0  0  0  0  0  0  0
   -3.3174    0.0332   -2.8938 C   0  0  0  0  0  0  0  0  0  0  0  0
   -2.7824   -0.0241   -1.5683 C   0  0  0  0  0  0  0  0  0  0  0  0
   -1.4291    0.5465   -1.3420 C   0  0  0  0  0  0  0  0  0  0  0  0
   -1.2609    1.9304   -1.0726 C   0  0  0  0  0  0  0  0  0  0  0  0
   -2.3298    2.8611   -1.1640 C   0  0  0  0  0  0  0  0  0  0  0  0
   -2.1319    4.2490   -1.1175 C   0  0  0  0  0  0  0  0  0  0  0  0
   -3.1964    5.1581   -1.2427 C   0  0  0  0  0  0  0  0  0  0  0  0
   -2.9628    6.5342   -1.2396 C   0  0  0  0  0  0  0  0  0  0  0  0
   -1.6636    7.0170   -1.1171 C   0  0  0  0  0  0  0  0  0  0  0  0
   -0.6000    6.1230   -0.9909 C   0  0  0  0  0  0  0  0  0  0  0  0
   -0.8253    4.7360   -0.9841 C   0  0  0  0  0  0  0  0  0  0  0  0
    0.2240    3.8164   -0.8285 C   0  0  0  0  0  0  0  0  0  0  0  0
    0.0288    2.4134   -0.7557 C   0  0  0  0  0  0  0  0  0  0  0  0
    1.0726    1.4912   -0.4606 C   0  0  0  0  0  0  0  0  0  0  0  0
    2.2037    1.7738    0.5609 C   0  0  0  0  0  0  0  0  0  0  0  0
    2.2230    2.9579    1.3760 C   0  0  0  0  0  0  0  0  0  0  0  0
    1.1704    3.7969    1.9139 C   0  0  0  0  0  0  0  0  0  0  0  0
    1.6207    4.9232    2.5602 C   0  0  0  0  0  0  0  0  0  0  0  0
    3.3165    4.9747    2.6055 S   0  0  0  0  0  0  0  0  0  0  0  0
    3.4480    3.4206    1.8687 C   0  0  0  0  0  0  0  0  0  0  0  0
    4.6224    2.6712    1.7529 C   0  0  0  0  0  0  0  0  0  0  0  0
    4.4830    1.3292    1.4180 C   0  0  0  0  0  0  0  0  0  0  0  0
    5.5755    0.4634    1.6123 C   0  0  0  0  0  0  0  0  0  0  0  0
    5.4564   -0.9221    1.4452 C   0  0  0  0  0  0  0  0  0  0  0  0
    4.2014   -1.4479    1.1281 C   0  0  0  0  0  0  0  0  0  0  0  0
    4.0424   -2.8375    0.9807 C   0  0  0  0  0  0  0  0  0  0  0  0
    5.1411   -3.7168    1.1229 C   0  0  0  0  0  0  0  0  0  0  0  0
    5.2193   -5.1424    0.9794 C   0  0  0  0  0  0  0  0  0  0  0  0
    6.4852   -5.6321    1.1989 C   0  0  0  0  0  0  0  0  0  0  0  0
    7.5915   -4.3918    1.5797 S   0  0  0  0  0  0  0  0  0  0  0  0
    6.3838   -3.1696    1.4429 C   0  0  0  0  0  0  0  0  0  0  0  0
    6.5553   -1.7818    1.6161 C   0  0  0  0  0  0  0  0  0  0  0  0
    3.1231   -0.5664    0.9336 C   0  0  0  0  0  0  0  0  0  0  0  0
    3.2467    0.8463    0.9443 C   0  0  0  0  0  0  0  0  0  0  0  0
    0.9941    0.2922   -1.2266 C   0  0  0  0  0  0  0  0  0  0  0  0
    2.1304   -0.3840   -1.7421 C   0  0  0  0  0  0  0  0  0  0  0  0
    2.0706   -1.6616   -2.3205 C   0  0  0  0  0  0  0  0  0  0  0  0
    3.2299   -2.3506   -2.7147 C   0  0  0  0  0  0  0  0  0  0  0  0
    3.1483   -3.6411   -3.2382 C   0  0  0  0  0  0  0  0  0  0  0  0
    1.9065   -4.2498   -3.3886 C   0  0  0  0  0  0  0  0  0  0  0  0
    0.7478   -3.5690   -3.0119 C   0  0  0  0  0  0  0  0  0  0  0  0
    0.8200   -2.2739   -2.4705 C   0  0  0  0  0  0  0  0  0  0  0  0
   -0.3268   -1.5566   -2.0988 C   0  0  0  0  0  0  0  0  0  0  0  0
   -0.2706   -0.2492   -1.5451 C   0  0  0  0  0  0  0  0  0  0  0  0
   -3.5307   -0.6253   -0.5097 C   0  0  0  0  0  0  0  0  0  0  0  0
   -3.0569   -0.7138    0.8211 C   0  0  0  0  0  0  0  0  0  0  0  0
   -5.8205   -2.4558    2.5728 C   0  0  0  0  0  0  0  0  0  0  0  0
   -5.3040   -2.5217    3.8816 C   0  0  0  0  0  0  0  0  0  0  0  0
   -6.0632   -3.2187    5.2633 S   0  0  0  0  0  0  0  0  0  0  0  0
   -4.7692   -3.0924    7.3234 H   0  0  0  0  0  0  0  0  0  0  0  0
   -2.8273   -1.8532    6.0594 H   0  0  0  0  0  0  0  0  0  0  0  0
   -2.3236   -0.9737    3.3998 H   0  0  0  0  0  0  0  0  0  0  0  0
   -6.5270   -2.1805    0.0152 H   0  0  0  0  0  0  0  0  0  0  0  0
   -6.3082   -1.5178   -2.3033 H   0  0  0  0  0  0  0  0  0  0  0  0
   -3.4435    0.7467   -6.2142 H   0  0  0  0  0  0  0  0  0  0  0  0
   -1.8026    1.0454   -4.1950 H   0  0  0  0  0  0  0  0  0  0  0  0
   -3.3443    2.5035   -1.3342 H   0  0  0  0  0  0  0  0  0  0  0  0
   -4.2171    4.7976   -1.3519 H   0  0  0  0  0  0  0  0  0  0  0  0
   -3.7946    7.2266   -1.3389 H   0  0  0  0  0  0  0  0  0  0  0  0
   -1.4770    8.0877   -1.1180 H   0  0  0  0  0  0  0  0  0  0  0  0
    0.4097    6.5148   -0.8890 H   0  0  0  0  0  0  0  0  0  0  0  0
    1.2386    4.2103   -0.7649 H   0  0  0  0  0  0  0  0  0  0  0  0
    0.1125    3.5860    1.8118 H   0  0  0  0  0  0  0  0  0  0  0  0
    1.0289    5.7120    3.0044 H   0  0  0  0  0  0  0  0  0  0  0  0
    5.5621    3.0697    2.1248 H   0  0  0  0  0  0  0  0  0  0  0  0
    6.5333    0.8742    1.9302 H   0  0  0  0  0  0  0  0  0  0  0  0
    3.0693   -3.2497    0.7198 H   0  0  0  0  0  0  0  0  0  0  0  0
    4.3773   -5.7727    0.7211 H   0  0  0  0  0  0  0  0  0  0  0  0
    6.8134   -6.6612    1.1528 H   0  0  0  0  0  0  0  0  0  0  0  0
    7.5359   -1.3881    1.8702 H   0  0  0  0  0  0  0  0  0  0  0  0
    2.1415   -1.0064    0.7599 H   0  0  0  0  0  0  0  0  0  0  0  0
    3.1075    0.0936   -1.6623 H   0  0  0  0  0  0  0  0  0  0  0  0
    4.2091   -1.8920   -2.5923 H   0  0  0  0  0  0  0  0  0  0  0  0
    4.0546   -4.1703   -3.5210 H   0  0  0  0  0  0  0  0  0  0  0  0
    1.8378   -5.2533   -3.8001 H   0  0  0  0  0  0  0  0  0  0  0  0
   -0.2157   -4.0569   -3.1422 H   0  0  0  0  0  0  0  0  0  0  0  0
   -1.2934   -2.0229   -2.2852 H   0  0  0  0  0  0  0  0  0  0  0  0
   -2.0777   -0.3047    1.0678 H   0  0  0  0  0  0  0  0  0  0  0  0
   -6.8004   -2.8754    2.3603 H   0  0  0  0  0  0  0  0  0  0  0  0
  1  2  4  0
  2  3  4  0
  3  4  4  0
  4  5  4  0
  5  6  4  0
  6  7  4  0
  7  8  4  0
  8  9  4  0
  9 10  4  0
 10 11  4  0
 11 12  4  0
 12 13  4  0
 13 14  4  0
 14 15  4  0
 15 16  1  0
 16 17  4  0
 17 18  4  0
 18 19  4  0
 19 20  4  0
 20 21  4  0
 21 22  4  0
 22 23  4  0
 23 24  4  0
 24 25  4  0
 25 26  4  0
 26 27  4  0
 27 28  1  0
 28 29  4  0
 29 30  4  0
 30 31  4  0
 31 32  4  0
 32 33  4  0
 33 34  4  0
 34 35  4  0
 35 36  4  0
 36 37  4  0
 37 38  4  0
 38 39  4  0
 39 40  4  0
 40 41  4  0
 41 42  4  0
 42 43  4  0
 43 44  4  0
 44 45  4  0
 38 46  4  0
 46 47  4  0
 27 48  4  0
 48 49  4  0
 49 50  4  0
 50 51  4  0
 51 52  4  0
 52 53  4  0
 53 54  4  0
 54 55  4  0
 55 56  4  0
 56 57  4  0
 15 58  4  0
 58 59  4  0
  6 60  4  0
 60 61  4  0
 61 62  4  0
 62  1  4  0
 61  3  4  0
 59  5  4  0
 58  8  4  0
 14 10  4  0
 57 16  4  0
 26 17  4  0
 47 28  4  0
 57 48  4  0
 24 19  4  0
 33 29  4  0
 47 35  4  0
 55 50  4  0
 45 37  4  0
 44 40  4  0
  1 63  1  0
  2 64  1  0
  4 65  1  0
  7 66  1  0
  9 67  1  0
 12 68  1  0
 13 69  1  0
 18 70  1  0
 20 71  1  0
 21 72  1  0
 22 73  1  0
 23 74  1  0
 25 75  1  0
 30 76  1  0
 31 77  1  0
 34 78  1  0
 36 79  1  0
 39 80  1  0
 41 81  1  0
 42 82  1  0
 45 83  1  0
 46 84  1  0
 49 85  1  0
 51 86  1  0
 52 87  1  0
 53 88  1  0
 54 89  1  0
 56 90  1  0
 59 91  1  0
 60 92  1  0
M  END
