
     RDKit          3D

 92106  0  0  0  0  0  0  0  0999 V2000
   -5.7730    8.2795   -0.3765 C   0  0  0  0  0  0  0  0  0  0  0  0
   -4.6603    7.4740   -0.4408 C   0  0  0  0  0  0  0  0  0  0  0  0
   -4.9533    6.0952   -0.1692 C   0  0  0  0  0  0  0  0  0  0  0  0
   -4.1048    4.9626   -0.1352 C   0  0  0  0  0  0  0  0  0  0  0  0
   -4.6103    3.6828    0.1577 C   0  0  0  0  0  0  0  0  0  0  0  0
   -5.9805    3.5212    0.4216 C   0  0  0  0  0  0  0  0  0  0  0  0
   -6.4753    2.2391    0.7131 C   0  0  0  0  0  0  0  0  0  0  0  0
   -5.6340    1.1147    0.7475 C   0  0  0  0  0  0  0  0  0  0  0  0
   -6.1429   -0.1612    1.0411 C   0  0  0  0  0  0  0  0  0  0  0  0
   -5.2745   -1.2703    1.0677 C   0  0  0  0  0  0  0  0  0  0  0  0
   -5.6976   -2.9061    1.4041 S   0  0  0  0  0  0  0  0  0  0  0  0
   -4.0920   -3.4427    1.2098 C   0  0  0  0  0  0  0  0  0  0  0  0
   -3.2348   -2.4092    0.8945 C   0  0  0  0  0  0  0  0  0  0  0  0
   -1.8023   -2.6632    0.6846 C   0  0  0  0  0  0  0  0  0  0  0  0
   -1.3412   -2.9645   -0.6329 C   0  0  0  0  0  0  0  0  0  0  0  0
   -2.2049   -3.0283   -1.7613 C   0  0  0  0  0  0  0  0  0  0  0  0
   -1.7534   -3.3173   -3.0584 C   0  0  0  0  0  0  0  0  0  0  0  0
   -2.6314   -3.3734   -4.1546 C   0  0  0  0  0  0  0  0  0  0  0  0
   -2.1570   -3.6618   -5.4348 C   0  0  0  0  0  0  0  0  0  0  0  0
   -0.8002   -3.8951   -5.6343 C   0  0  0  0  0  0  0  0  0  0  0  0
    0.0804   -3.8408   -4.5532 C   0  0  0  0  0  0  0  0  0  0  0  0
   -0.3872   -3.5535   -3.2592 C   0  0  0  0  0  0  0  0  0  0  0  0
    0.4773   -3.4942   -2.1554 C   0  0  0  0  0  0  0  0  0  0  0  0
    0.0342   -3.2059   -0.8349 C   0  0  0  0  0  0  0  0  0  0  0  0
    0.9165   -3.1445    0.2857 C   0  0  0  0  0  0  0  0  0  0  0  0
    2.3493   -3.3971    0.0769 C   0  0  0  0  0  0  0  0  0  0  0  0
    2.8545   -4.6785    0.1460 C   0  0  0  0  0  0  0  0  0  0  0  0
    4.5372   -4.7181   -0.1203 S   0  0  0  0  0  0  0  0  0  0  0  0
    4.6237   -3.0099   -0.3281 C   0  0  0  0  0  0  0  0  0  0  0  0
    5.7785   -2.2477   -0.5936 C   0  0  0  0  0  0  0  0  0  0  0  0
    5.6751   -0.8536   -0.7334 C   0  0  0  0  0  0  0  0  0  0  0  0
    6.8086   -0.0662   -0.9942 C   0  0  0  0  0  0  0  0  0  0  0  0
    6.7204    1.3289   -1.1361 C   0  0  0  0  0  0  0  0  0  0  0  0
    5.4670    1.9516   -1.0149 C   0  0  0  0  0  0  0  0  0  0  0  0
    4.3332    1.1650   -0.7537 C   0  0  0  0  0  0  0  0  0  0  0  0
    4.4234   -0.2292   -0.6111 C   0  0  0  0  0  0  0  0  0  0  0  0
    3.2831   -1.0070   -0.3472 C   0  0  0  0  0  0  0  0  0  0  0  0
    3.3687   -2.4145   -0.2001 C   0  0  0  0  0  0  0  0  0  0  0  0
    5.3673    3.3476   -1.1565 C   0  0  0  0  0  0  0  0  0  0  0  0
    6.5099    4.1407   -1.4197 C   0  0  0  0  0  0  0  0  0  0  0  0
    6.6411    5.5587   -1.5998 C   0  0  0  0  0  0  0  0  0  0  0  0
    7.9374    5.9493   -1.8405 C   0  0  0  0  0  0  0  0  0  0  0  0
    9.0101    4.6242   -1.8536 S   0  0  0  0  0  0  0  0  0  0  0  0
    7.7432    3.4993   -1.5347 C   0  0  0  0  0  0  0  0  0  0  0  0
    7.8637    2.1026   -1.3961 C   0  0  0  0  0  0  0  0  0  0  0  0
    0.4588   -2.8229    1.5994 C   0  0  0  0  0  0  0  0  0  0  0  0
    1.3277   -2.7306    2.7219 C   0  0  0  0  0  0  0  0  0  0  0  0
    0.8827   -2.4047    4.0121 C   0  0  0  0  0  0  0  0  0  0  0  0
    1.7673   -2.3147    5.1007 C   0  0  0  0  0  0  0  0  0  0  0  0
    1.2999   -1.9867    6.3739 C   0  0  0  0  0  0  0  0  0  0  0  0
   -0.0555   -1.7450    6.5732 C   0  0  0  0  0  0  0  0  0  0  0  0
   -0.9423   -1.8313    5.4991 C   0  0  0  0  0  0  0  0  0  0  0  0
   -0.4823   -2.1608    4.2125 C   0  0  0  0  0  0  0  0  0  0  0  0
   -1.3525   -2.2514    3.1150 C   0  0  0  0  0  0  0  0  0  0  0  0
   -0.9161   -2.5782    1.8011 C   0  0  0  0  0  0  0  0  0  0  0  0
   -3.9102   -1.1369    0.8086 C   0  0  0  0  0  0  0  0  0  0  0  0
   -3.4142    0.1586    0.5149 C   0  0  0  0  0  0  0  0  0  0  0  0
   -4.2647    1.2775    0.4833 C   0  0  0  0  0  0  0  0  0  0  0  0
   -3.7688    2.5588    0.1916 C   0  0  0  0  0  0  0  0  0  0  0  0
   -6.8353    4.6354    0.3912 C   0  0  0  0  0  0  0  0  0  0  0  0
   -6.3099    5.9087    0.0961 C   0  0  0  0  0  0  0  0  0  0  0  0
   -7.1786    7.3952    0.0088 S   0  0  0  0  0  0  0  0  0  0  0  0
   -5.8276    9.3474   -0.5379 H   0  0  0  0  0  0  0  0  0  0  0  0
   -3.6718    7.8510   -0.6727 H   0  0  0  0  0  0  0  0  0  0  0  0
   -3.0453    5.0964   -0.3408 H   0  0  0  0  0  0  0  0  0  0  0  0
   -7.5382    2.1146    0.9167 H   0  0  0  0  0  0  0  0  0  0  0  0
   -7.2007   -0.3021    1.2487 H   0  0  0  0  0  0  0  0  0  0  0  0
   -3.8522   -4.4904    1.3358 H   0  0  0  0  0  0  0  0  0  0  0  0
   -3.2709   -2.8431   -1.6344 H   0  0  0  0  0  0  0  0  0  0  0  0
   -3.6950   -3.1913   -4.0161 H   0  0  0  0  0  0  0  0  0  0  0  0
   -2.8467   -3.7031   -6.2736 H   0  0  0  0  0  0  0  0  0  0  0  0
   -0.4260   -4.1188   -6.6299 H   0  0  0  0  0  0  0  0  0  0  0  0
    1.1386   -4.0245   -4.7267 H   0  0  0  0  0  0  0  0  0  0  0  0
    1.5354   -3.6758   -2.3406 H   0  0  0  0  0  0  0  0  0  0  0  0
    2.3147   -5.5962    0.3400 H   0  0  0  0  0  0  0  0  0  0  0  0
    6.7411   -2.7447   -0.6854 H   0  0  0  0  0  0  0  0  0  0  0  0
    7.7805   -0.5489   -1.0890 H   0  0  0  0  0  0  0  0  0  0  0  0
    3.3612    1.6470   -0.6592 H   0  0  0  0  0  0  0  0  0  0  0  0
    2.3103   -0.5292   -0.2480 H   0  0  0  0  0  0  0  0  0  0  0  0
    4.4003    3.8370   -1.0652 H   0  0  0  0  0  0  0  0  0  0  0  0
    5.8137    6.2558   -1.5529 H   0  0  0  0  0  0  0  0  0  0  0  0
    8.3066    6.9515   -2.0096 H   0  0  0  0  0  0  0  0  0  0  0  0
    8.8407    1.6359   -1.4920 H   0  0  0  0  0  0  0  0  0  0  0  0
    2.3943   -2.9126    2.5940 H   0  0  0  0  0  0  0  0  0  0  0  0
    2.8305   -2.4988    4.9612 H   0  0  0  0  0  0  0  0  0  0  0  0
    1.9946   -1.9195    7.2069 H   0  0  0  0  0  0  0  0  0  0  0  0
   -0.4244   -1.4883    7.5627 H   0  0  0  0  0  0  0  0  0  0  0  0
   -1.9987   -1.6378    5.6725 H   0  0  0  0  0  0  0  0  0  0  0  0
   -2.4080   -2.0536    3.2981 H   0  0  0  0  0  0  0  0  0  0  0  0
   -2.3517    0.2777    0.3122 H   0  0  0  0  0  0  0  0  0  0  0  0
   -2.7065    2.6835   -0.0135 H   0  0  0  0  0  0  0  0  0  0  0  0
   -7.8979    4.5268    0.5926 H   0  0  0  0  0  0  0  0  0  0  0  0
  1  2  4  0
  2  3  4  0
  3  4  4  0
  4  5  4  0
  5  6  4  0
  6  7  4  0
  7  8  4  0
  8  9  4  0
  9 10  4  0
 10 11  4  0
 11 12  4  0
 12 13  4  0
 13 14  1  0
 14 15  4  0
 15 16  4  0
 16 17  4  0
 17 18  4  0
 18 19  4  0
 19 20  4  0
 20 21  4  0
 21 22  4  0
 22 23  4  0
 23 24  4  0
 24 25  4  0
 25 26  1  0
 26 27  4  0
 27 28  4  0
 28 29  4  0
 29 30  4  0
 30 31  4  0
 31 32  4  0
 32 33  4  0
 33 34  4  0
 34 35  4  0
 35 36  4  0
 36 37  4  0
 37 38  4  0
 34 39  4  0
 39 40  4  0
 40 41  4  0
 41 42  4  0
 42 43  4  0
 43 44  4  0
 44 45  4  0
 25 46  4  0
 46 47  4  0
 47 48  4  0
 48 49  4  0
 49 50  4  0
 50 51  4  0
 51 52  4  0
 52 53  4  0
 53 54  4  0
 54 55  4  0
 13 56  4  0
 56 57  4  0
 57 58  4  0
 58 59  4  0
  6 60  4  0
 60 61  4  0
 61 62  4  0
 62  1  4  0
 61  3  4  0
 59  5  4  0
 58  8  4  0
 56 10  4  0
 55 14  4  0
 24 15  4  0
 38 26  4  0
 44 40  4  0
 55 46  4  0
 22 17  4  0
 38 29  4  0
 53 48  4  0
 36 31  4  0
 45 33  4  0
  1 63  1  0
  2 64  1  0
  4 65  1  0
  7 66  1  0
  9 67  1  0
 12 68  1  0
 16 69  1  0
 18 70  1  0
 19 71  1  0
 20 72  1  0
 21 73  1  0
 23 74  1  0
 27 75  1  0
 30 76  1  0
 32 77  1  0
 35 78  1  0
 37 79  1  0
 39 80  1  0
 41 81  1  0
 42 82  1  0
 45 83  1  0
 47 84  1  0
 49 85  1  0
 50 86  1  0
 51 87  1  0
 52 88  1  0
 54 89  1  0
 57 90  1  0
 59 91  1  0
 60 92  1  0
M  END
