
     RDKit          3D

 92106  0  0  0  0  0  0  0  0999 V2000
    4.7290    6.8986    1.2751 C   0  0  0  0  0  0  0  0  0  0  0  0
    5.7135    5.9753    1.0111 C   0  0  0  0  0  0  0  0  0  0  0  0
    5.1920    4.6658    0.7397 C   0  0  0  0  0  0  0  0  0  0  0  0
    5.8568    3.4558    0.4263 C   0  0  0  0  0  0  0  0  0  0  0  0
    5.1365    2.2697    0.1912 C   0  0  0  0  0  0  0  0  0  0  0  0
    3.7378    2.2809    0.2686 C   0  0  0  0  0  0  0  0  0  0  0  0
    3.0624    3.4729    0.5798 C   0  0  0  0  0  0  0  0  0  0  0  0
    3.7990    4.6509    0.8109 C   0  0  0  0  0  0  0  0  0  0  0  0
    3.1719    6.2083    1.2013 S   0  0  0  0  0  0  0  0  0  0  0  0
    3.0318    1.0895    0.0284 C   0  0  0  0  0  0  0  0  0  0  0  0
    3.6744   -0.1296   -0.2965 C   0  0  0  0  0  0  0  0  0  0  0  0
    5.0791   -0.1202   -0.3675 C   0  0  0  0  0  0  0  0  0  0  0  0
    5.7893    1.0684   -0.1231 C   0  0  0  0  0  0  0  0  0  0  0  0
    5.7733   -1.2970   -0.6852 C   0  0  0  0  0  0  0  0  0  0  0  0
    5.0971   -2.5096   -0.9475 C   0  0  0  0  0  0  0  0  0  0  0  0
    5.6247   -3.8011   -1.2892 C   0  0  0  0  0  0  0  0  0  0  0  0
    4.6465   -4.7464   -1.4743 C   0  0  0  0  0  0  0  0  0  0  0  0
    3.0901   -4.1013   -1.2426 S   0  0  0  0  0  0  0  0  0  0  0  0
    3.7024   -2.5172   -0.8807 C   0  0  0  0  0  0  0  0  0  0  0  0
    2.9625   -1.3432   -0.5541 C   0  0  0  0  0  0  0  0  0  0  0  0
    1.4750   -1.4196   -0.4979 C   0  0  0  0  0  0  0  0  0  0  0  0
    0.8339   -1.7905    0.7255 C   0  0  0  0  0  0  0  0  0  0  0  0
    1.5620   -2.0782    1.9117 C   0  0  0  0  0  0  0  0  0  0  0  0
    0.9500   -2.4476    3.1195 C   0  0  0  0  0  0  0  0  0  0  0  0
    1.6980   -2.7257    4.2766 C   0  0  0  0  0  0  0  0  0  0  0  0
    1.0650   -3.0920    5.4650 C   0  0  0  0  0  0  0  0  0  0  0  0
   -0.3221   -3.1855    5.5102 C   0  0  0  0  0  0  0  0  0  0  0  0
   -1.0744   -2.9115    4.3673 C   0  0  0  0  0  0  0  0  0  0  0  0
   -0.4465   -2.5402    3.1656 C   0  0  0  0  0  0  0  0  0  0  0  0
   -1.1794   -2.2565    2.0033 C   0  0  0  0  0  0  0  0  0  0  0  0
   -0.5748   -1.8777    0.7740 C   0  0  0  0  0  0  0  0  0  0  0  0
   -1.3394   -1.5831   -0.3977 C   0  0  0  0  0  0  0  0  0  0  0  0
   -2.8261   -1.6732   -0.3455 C   0  0  0  0  0  0  0  0  0  0  0  0
   -3.4572   -2.9030   -0.6937 C   0  0  0  0  0  0  0  0  0  0  0  0
   -2.7064   -4.3866   -1.1932 S   0  0  0  0  0  0  0  0  0  0  0  0
   -4.1976   -5.1861   -1.3657 C   0  0  0  0  0  0  0  0  0  0  0  0
   -5.2554   -4.3676   -1.0557 C   0  0  0  0  0  0  0  0  0  0  0  0
   -4.8458   -3.0477   -0.6653 C   0  0  0  0  0  0  0  0  0  0  0  0
   -5.6268   -1.9364   -0.2764 C   0  0  0  0  0  0  0  0  0  0  0  0
   -5.0410   -0.7120    0.0779 C   0  0  0  0  0  0  0  0  0  0  0  0
   -5.8532    0.3679    0.4659 C   0  0  0  0  0  0  0  0  0  0  0  0
   -5.3102    1.6086    0.8317 C   0  0  0  0  0  0  0  0  0  0  0  0
   -3.9195    1.7741    0.8063 C   0  0  0  0  0  0  0  0  0  0  0  0
   -3.3529    3.0069    1.1708 C   0  0  0  0  0  0  0  0  0  0  0  0
   -4.1905    4.0701    1.5599 C   0  0  0  0  0  0  0  0  0  0  0  0
   -3.7046    5.6518    2.0425 S   0  0  0  0  0  0  0  0  0  0  0  0
   -5.3154    6.1501    2.2942 C   0  0  0  0  0  0  0  0  0  0  0  0
   -6.2133    5.1452    2.0201 C   0  0  0  0  0  0  0  0  0  0  0  0
   -5.5780    3.9310    1.5929 C   0  0  0  0  0  0  0  0  0  0  0  0
   -6.1321    2.6820    1.2222 C   0  0  0  0  0  0  0  0  0  0  0  0
   -3.1115    0.6931    0.4150 C   0  0  0  0  0  0  0  0  0  0  0  0
   -3.6427   -0.5665    0.0464 C   0  0  0  0  0  0  0  0  0  0  0  0
   -0.6994   -1.1965   -1.6165 C   0  0  0  0  0  0  0  0  0  0  0  0
   -1.4295   -0.8810   -2.7944 C   0  0  0  0  0  0  0  0  0  0  0  0
   -0.8189   -0.5009   -3.9993 C   0  0  0  0  0  0  0  0  0  0  0  0
   -1.5693   -0.1938   -5.1476 C   0  0  0  0  0  0  0  0  0  0  0  0
   -0.9372    0.1813   -6.3339 C   0  0  0  0  0  0  0  0  0  0  0  0
    0.4510    0.2541   -6.3856 C   0  0  0  0  0  0  0  0  0  0  0  0
    1.2052   -0.0485   -5.2512 C   0  0  0  0  0  0  0  0  0  0  0  0
    0.5785   -0.4280   -4.0515 C   0  0  0  0  0  0  0  0  0  0  0  0
    1.3134   -0.7368   -2.8967 C   0  0  0  0  0  0  0  0  0  0  0  0
    0.7098   -1.1190   -1.6680 C   0  0  0  0  0  0  0  0  0  0  0  0
    4.8501    7.9476    1.5081 H   0  0  0  0  0  0  0  0  0  0  0  0
    6.7681    6.2220    1.0105 H   0  0  0  0  0  0  0  0  0  0  0  0
    6.9428    3.4562    0.3668 H   0  0  0  0  0  0  0  0  0  0  0  0
    1.9771    3.4955    0.6407 H   0  0  0  0  0  0  0  0  0  0  0  0
    1.9443    1.1177    0.0935 H   0  0  0  0  0  0  0  0  0  0  0  0
    6.8770    1.0599   -0.1817 H   0  0  0  0  0  0  0  0  0  0  0  0
    6.8603   -1.2900   -0.7375 H   0  0  0  0  0  0  0  0  0  0  0  0
    6.6807   -4.0179   -1.3936 H   0  0  0  0  0  0  0  0  0  0  0  0
    4.7719   -5.7881   -1.7362 H   0  0  0  0  0  0  0  0  0  0  0  0
    2.6493   -2.0155    1.9039 H   0  0  0  0  0  0  0  0  0  0  0  0
    2.7835   -2.6580    4.2575 H   0  0  0  0  0  0  0  0  0  0  0  0
    1.6556   -3.3040    6.3521 H   0  0  0  0  0  0  0  0  0  0  0  0
   -0.8199   -3.4713    6.4327 H   0  0  0  0  0  0  0  0  0  0  0  0
   -2.1581   -2.9901    4.4190 H   0  0  0  0  0  0  0  0  0  0  0  0
   -2.2637   -2.3354    2.0676 H   0  0  0  0  0  0  0  0  0  0  0  0
   -4.2297   -6.2186   -1.6856 H   0  0  0  0  0  0  0  0  0  0  0  0
   -6.2867   -4.6950   -1.1038 H   0  0  0  0  0  0  0  0  0  0  0  0
   -6.7091   -2.0482   -0.2541 H   0  0  0  0  0  0  0  0  0  0  0  0
   -6.9346    0.2398    0.4859 H   0  0  0  0  0  0  0  0  0  0  0  0
   -2.2749    3.1473    1.1575 H   0  0  0  0  0  0  0  0  0  0  0  0
   -5.5290    7.1552    2.6311 H   0  0  0  0  0  0  0  0  0  0  0  0
   -7.2846    5.2680    2.1207 H   0  0  0  0  0  0  0  0  0  0  0  0
   -7.2127    2.5618    1.2450 H   0  0  0  0  0  0  0  0  0  0  0  0
   -2.0319    0.8408    0.4010 H   0  0  0  0  0  0  0  0  0  0  0  0
   -2.5175   -0.9307   -2.7824 H   0  0  0  0  0  0  0  0  0  0  0  0
   -2.6555   -0.2459   -5.1235 H   0  0  0  0  0  0  0  0  0  0  0  0
   -1.5293    0.4152   -7.2145 H   0  0  0  0  0  0  0  0  0  0  0  0
    0.9480    0.5456   -7.3067 H   0  0  0  0  0  0  0  0  0  0  0  0
    2.2897    0.0133   -5.3077 H   0  0  0  0  0  0  0  0  0  0  0  0
    2.3984   -0.6723   -2.9658 H   0  0  0  0  0  0  0  0  0  0  0  0
  1  2  4  0
  2  3  4  0
  3  4  4  0
  4  5  4  0
  5  6  4  0
  6  7  4  0
  7  8  4  0
  8  9  4  0
  6 10  4  0
 10 11  4  0
 11 12  4  0
 12 13  4  0
 12 14  4  0
 14 15  4  0
 15 16  4  0
 16 17  4  0
 17 18  4  0
 18 19  4  0
 19 20  4  0
 20 21  1  0
 21 22  4  0
 22 23  4  0
 23 24  4  0
 24 25  4  0
 25 26  4  0
 26 27  4  0
 27 28  4  0
 28 29  4  0
 29 30  4  0
 30 31  4  0
 31 32  4  0
 32 33  1  0
 33 34  4  0
 34 35  4  0
 35 36  4  0
 36 37  4  0
 37 38  4  0
 38 39  4  0
 39 40  4  0
 40 41  4  0
 41 42  4  0
 42 43  4  0
 43 44  4  0
 44 45  4  0
 45 46  4  0
 46 47  4  0
 47 48  4  0
 48 49  4  0
 49 50  4  0
 43 51  4  0
 51 52  4  0
 32 53  4  0
 53 54  4  0
 54 55  4  0
 55 56  4  0
 56 57  4  0
 57 58  4  0
 58 59  4  0
 59 60  4  0
 60 61  4  0
 61 62  4  0
  9  1  4  0
 20 11  4  0
 62 21  4  0
  8  3  4  0
 19 15  4  0
 31 22  4  0
 52 33  4  0
 62 53  4  0
 13  5  4  0
 29 24  4  0
 38 34  4  0
 52 40  4  0
 60 55  4  0
 50 42  4  0
 49 45  4  0
  1 63  1  0
  2 64  1  0
  4 65  1  0
  7 66  1  0
 10 67  1  0
 13 68  1  0
 14 69  1  0
 16 70  1  0
 17 71  1  0
 23 72  1  0
 25 73  1  0
 26 74  1  0
 27 75  1  0
 28 76  1  0
 30 77  1  0
 36 78  1  0
 37 79  1  0
 39 80  1  0
 41 81  1  0
 44 82  1  0
 47 83  1  0
 48 84  1  0
 50 85  1  0
 51 86  1  0
 54 87  1  0
 56 88  1  0
 57 89  1  0
 58 90  1  0
 59 91  1  0
 61 92  1  0
M  END
