
     RDKit          3D

 92106  0  0  0  0  0  0  0  0999 V2000
   -3.7744   -0.9052    6.5504 C   0  0  0  0  0  0  0  0  0  0  0  0
   -4.8786   -0.7790    5.7403 C   0  0  0  0  0  0  0  0  0  0  0  0
   -4.5369   -0.5786    4.3610 C   0  0  0  0  0  0  0  0  0  0  0  0
   -5.3554   -0.4062    3.2223 C   0  0  0  0  0  0  0  0  0  0  0  0
   -4.8021   -0.2233    1.9405 C   0  0  0  0  0  0  0  0  0  0  0  0
   -5.6503   -0.0620    0.8383 C   0  0  0  0  0  0  0  0  0  0  0  0
   -5.1598    0.1213   -0.4601 C   0  0  0  0  0  0  0  0  0  0  0  0
   -3.7714    0.1526   -0.6839 C   0  0  0  0  0  0  0  0  0  0  0  0
   -3.3220    0.3426   -2.0147 C   0  0  0  0  0  0  0  0  0  0  0  0
   -4.2387    0.4863   -3.0757 C   0  0  0  0  0  0  0  0  0  0  0  0
   -3.8731    0.7154   -4.7442 S   0  0  0  0  0  0  0  0  0  0  0  0
   -5.5223    0.7659   -5.1744 C   0  0  0  0  0  0  0  0  0  0  0  0
   -6.3430    0.6150   -4.0812 C   0  0  0  0  0  0  0  0  0  0  0  0
   -5.6128    0.4518   -2.8562 C   0  0  0  0  0  0  0  0  0  0  0  0
   -6.0638    0.2693   -1.5297 C   0  0  0  0  0  0  0  0  0  0  0  0
   -2.8876   -0.0127    0.4336 C   0  0  0  0  0  0  0  0  0  0  0  0
   -1.4029    0.0040    0.2177 C   0  0  0  0  0  0  0  0  0  0  0  0
   -0.7236   -1.2172   -0.0897 C   0  0  0  0  0  0  0  0  0  0  0  0
   -1.4037   -2.4590   -0.2102 C   0  0  0  0  0  0  0  0  0  0  0  0
   -0.7540   -3.6652   -0.5141 C   0  0  0  0  0  0  0  0  0  0  0  0
   -1.4551   -4.8784   -0.6273 C   0  0  0  0  0  0  0  0  0  0  0  0
   -0.7853   -6.0638   -0.9334 C   0  0  0  0  0  0  0  0  0  0  0  0
    0.5919   -6.0504   -1.1292 C   0  0  0  0  0  0  0  0  0  0  0  0
    1.2976   -4.8518   -1.0175 C   0  0  0  0  0  0  0  0  0  0  0  0
    0.6327   -3.6522   -0.7094 C   0  0  0  0  0  0  0  0  0  0  0  0
    1.3191   -2.4343   -0.5892 C   0  0  0  0  0  0  0  0  0  0  0  0
    0.6757   -1.2057   -0.2801 C   0  0  0  0  0  0  0  0  0  0  0  0
    1.3934    0.0246   -0.1524 C   0  0  0  0  0  0  0  0  0  0  0  0
    2.8837    0.0314   -0.3235 C   0  0  0  0  0  0  0  0  0  0  0  0
    3.7263   -0.1871    0.8166 C   0  0  0  0  0  0  0  0  0  0  0  0
    3.2273   -0.4164    2.1233 C   0  0  0  0  0  0  0  0  0  0  0  0
    4.1029   -0.6272    3.2067 C   0  0  0  0  0  0  0  0  0  0  0  0
    3.6732   -0.9198    4.8495 S   0  0  0  0  0  0  0  0  0  0  0  0
    5.3047   -1.0349    5.3314 C   0  0  0  0  0  0  0  0  0  0  0  0
    6.1664   -0.8557    4.2745 C   0  0  0  0  0  0  0  0  0  0  0  0
    5.4839   -0.6173    3.0348 C   0  0  0  0  0  0  0  0  0  0  0  0
    5.9844   -0.3867    1.7335 C   0  0  0  0  0  0  0  0  0  0  0  0
    5.1214   -0.1753    0.6409 C   0  0  0  0  0  0  0  0  0  0  0  0
    5.6585    0.0485   -0.6325 C   0  0  0  0  0  0  0  0  0  0  0  0
    4.8507    0.2624   -1.7560 C   0  0  0  0  0  0  0  0  0  0  0  0
    3.4507    0.2569   -1.6208 C   0  0  0  0  0  0  0  0  0  0  0  0
    2.6734    0.4768   -2.7854 C   0  0  0  0  0  0  0  0  0  0  0  0
    3.2877    0.6933   -4.0352 C   0  0  0  0  0  0  0  0  0  0  0  0
    2.5060    0.9748   -5.5449 S   0  0  0  0  0  0  0  0  0  0  0  0
    3.9908    1.1049   -6.3732 C   0  0  0  0  0  0  0  0  0  0  0  0
    5.0649    0.9394   -5.5304 C   0  0  0  0  0  0  0  0  0  0  0  0
    4.6730    0.6997   -4.1707 C   0  0  0  0  0  0  0  0  0  0  0  0
    5.4499    0.4808   -3.0111 C   0  0  0  0  0  0  0  0  0  0  0  0
    0.7143    1.2459    0.1517 C   0  0  0  0  0  0  0  0  0  0  0  0
    1.3986    2.4840    0.2854 C   0  0  0  0  0  0  0  0  0  0  0  0
    0.7507    3.6913    0.5873 C   0  0  0  0  0  0  0  0  0  0  0  0
    1.4572    4.8999    0.7164 C   0  0  0  0  0  0  0  0  0  0  0  0
    0.7902    6.0874    1.0187 C   0  0  0  0  0  0  0  0  0  0  0  0
   -0.5896    6.0805    1.1946 C   0  0  0  0  0  0  0  0  0  0  0  0
   -1.3005    4.8862    1.0684 C   0  0  0  0  0  0  0  0  0  0  0  0
   -0.6386    3.6837    0.7645 C   0  0  0  0  0  0  0  0  0  0  0  0
   -1.3288    2.4681    0.6341 C   0  0  0  0  0  0  0  0  0  0  0  0
   -0.6863    1.2367    0.3335 C   0  0  0  0  0  0  0  0  0  0  0  0
   -3.4077   -0.2041    1.7569 C   0  0  0  0  0  0  0  0  0  0  0  0
   -2.5890   -0.3783    2.9012 C   0  0  0  0  0  0  0  0  0  0  0  0
   -3.1573   -0.5617    4.1776 C   0  0  0  0  0  0  0  0  0  0  0  0
   -2.3206   -0.7863    5.6673 S   0  0  0  0  0  0  0  0  0  0  0  0
   -3.7520   -1.0622    7.6201 H   0  0  0  0  0  0  0  0  0  0  0  0
   -5.8935   -0.8271    6.1154 H   0  0  0  0  0  0  0  0  0  0  0  0
   -6.4353   -0.4193    3.3546 H   0  0  0  0  0  0  0  0  0  0  0  0
   -6.7286   -0.0832    0.9959 H   0  0  0  0  0  0  0  0  0  0  0  0
   -2.2592    0.3767   -2.2430 H   0  0  0  0  0  0  0  0  0  0  0  0
   -5.8125    0.9033   -6.2070 H   0  0  0  0  0  0  0  0  0  0  0  0
   -7.4240    0.6190   -4.1505 H   0  0  0  0  0  0  0  0  0  0  0  0
   -7.1361    0.2417   -1.3473 H   0  0  0  0  0  0  0  0  0  0  0  0
   -2.4824   -2.4981   -0.0642 H   0  0  0  0  0  0  0  0  0  0  0  0
   -2.5321   -4.9059   -0.4764 H   0  0  0  0  0  0  0  0  0  0  0  0
   -1.3393   -6.9948   -1.0186 H   0  0  0  0  0  0  0  0  0  0  0  0
    1.1183   -6.9705   -1.3684 H   0  0  0  0  0  0  0  0  0  0  0  0
    2.3741   -4.8579   -1.1739 H   0  0  0  0  0  0  0  0  0  0  0  0
    2.3972   -2.4533   -0.7432 H   0  0  0  0  0  0  0  0  0  0  0  0
    2.1569   -0.4351    2.3150 H   0  0  0  0  0  0  0  0  0  0  0  0
    5.5555   -1.2284    6.3653 H   0  0  0  0  0  0  0  0  0  0  0  0
    7.2437   -0.8933    4.3796 H   0  0  0  0  0  0  0  0  0  0  0  0
    7.0625   -0.3754    1.5883 H   0  0  0  0  0  0  0  0  0  0  0  0
    6.7417    0.0560   -0.7533 H   0  0  0  0  0  0  0  0  0  0  0  0
    1.5871    0.4823   -2.7364 H   0  0  0  0  0  0  0  0  0  0  0  0
    4.0072    1.2963   -7.4374 H   0  0  0  0  0  0  0  0  0  0  0  0
    6.0928    0.9871   -5.8685 H   0  0  0  0  0  0  0  0  0  0  0  0
    6.5337    0.4836   -3.1066 H   0  0  0  0  0  0  0  0  0  0  0  0
    2.4791    2.5191    0.1521 H   0  0  0  0  0  0  0  0  0  0  0  0
    2.5366    4.9217    0.5825 H   0  0  0  0  0  0  0  0  0  0  0  0
    1.3485    7.0146    1.1163 H   0  0  0  0  0  0  0  0  0  0  0  0
   -1.1140    7.0028    1.4299 H   0  0  0  0  0  0  0  0  0  0  0  0
   -2.3791    4.8984    1.2092 H   0  0  0  0  0  0  0  0  0  0  0  0
   -2.4084    2.4904    0.7770 H   0  0  0  0  0  0  0  0  0  0  0  0
   -1.5046   -0.3741    2.8161 H   0  0  0  0  0  0  0  0  0  0  0  0
  1  2  4  0
  2  3  4  0
  3  4  4  0
  4  5  4  0
  5  6  4  0
  6  7  4  0
  7  8  4  0
  8  9  4  0
  9 10  4  0
 10 11  4  0
 11 12  4  0
 12 13  4  0
 13 14  4  0
 14 15  4  0
  8 16  4  0
 16 17  1  0
 17 18  4  0
 18 19  4  0
 19 20  4  0
 20 21  4  0
 21 22  4  0
 22 23  4  0
 23 24  4  0
 24 25  4  0
 25 26  4  0
 26 27  4  0
 27 28  4  0
 28 29  1  0
 29 30  4  0
 30 31  4  0
 31 32  4  0
 32 33  4  0
 33 34  4  0
 34 35  4  0
 35 36  4  0
 36 37  4  0
 37 38  4  0
 38 39  4  0
 39 40  4  0
 40 41  4  0
 41 42  4  0
 42 43  4  0
 43 44  4  0
 44 45  4  0
 45 46  4  0
 46 47  4  0
 47 48  4  0
 28 49  4  0
 49 50  4  0
 50 51  4  0
 51 52  4  0
 52 53  4  0
 53 54  4  0
 54 55  4  0
 55 56  4  0
 56 57  4  0
 57 58  4  0
 16 59  4  0
 59 60  4  0
 60 61  4  0
 61 62  4  0
 62  1  4  0
 61  3  4  0
 59  5  4  0
 15  7  4  0
 58 17  4  0
 14 10  4  0
 27 18  4  0
 41 29  4  0
 47 43  4  0
 58 49  4  0
 25 20  4  0
 38 30  4  0
 48 40  4  0
 56 51  4  0
 36 32  4  0
  1 63  1  0
  2 64  1  0
  4 65  1  0
  6 66  1  0
  9 67  1  0
 12 68  1  0
 13 69  1  0
 15 70  1  0
 19 71  1  0
 21 72  1  0
 22 73  1  0
 23 74  1  0
 24 75  1  0
 26 76  1  0
 31 77  1  0
 34 78  1  0
 35 79  1  0
 37 80  1  0
 39 81  1  0
 42 82  1  0
 45 83  1  0
 46 84  1  0
 48 85  1  0
 50 86  1  0
 52 87  1  0
 53 88  1  0
 54 89  1  0
 55 90  1  0
 57 91  1  0
 60 92  1  0
M  END
