
     RDKit          3D

 86 98  0  0  0  0  0  0  0  0999 V2000
   -3.1326   -3.4667   -2.0489 C   0  0  0  0  0  0  0  0  0  0  0  0
   -4.4369   -2.9985   -1.9196 C   0  0  0  0  0  0  0  0  0  0  0  0
   -4.7081   -1.7698   -1.2975 C   0  0  0  0  0  0  0  0  0  0  0  0
   -6.0348   -1.3200   -1.1806 C   0  0  0  0  0  0  0  0  0  0  0  0
   -6.3589   -0.1030   -0.5706 C   0  0  0  0  0  0  0  0  0  0  0  0
   -7.7246    0.2753   -0.4953 C   0  0  0  0  0  0  0  0  0  0  0  0
   -7.9087    1.5054    0.1335 C   0  0  0  0  0  0  0  0  0  0  0  0
   -9.1432    2.0756    0.3213 C   0  0  0  0  0  0  0  0  0  0  0  0
   -9.0102    3.5910    1.1285 S   0  0  0  0  0  0  0  0  0  0  0  0
   -7.2946    3.4755    1.2221 C   0  0  0  0  0  0  0  0  0  0  0  0
   -6.8457    2.3105    0.6515 C   0  0  0  0  0  0  0  0  0  0  0  0
   -5.4979    1.9620    0.5900 C   0  0  0  0  0  0  0  0  0  0  0  0
   -5.2828    0.7120   -0.0459 C   0  0  0  0  0  0  0  0  0  0  0  0
   -3.9675    0.2447   -0.1724 C   0  0  0  0  0  0  0  0  0  0  0  0
   -3.6447   -0.9870   -0.7906 C   0  0  0  0  0  0  0  0  0  0  0  0
   -2.3090   -1.4703   -0.9264 C   0  0  0  0  0  0  0  0  0  0  0  0
   -1.1288   -0.7091   -0.4272 C   0  0  0  0  0  0  0  0  0  0  0  0
   -0.4812    0.2297   -1.2896 C   0  0  0  0  0  0  0  0  0  0  0  0
   -0.9320    0.4873   -2.6127 C   0  0  0  0  0  0  0  0  0  0  0  0
   -0.3080    1.4039   -3.4731 C   0  0  0  0  0  0  0  0  0  0  0  0
   -0.7784    1.6375   -4.7769 C   0  0  0  0  0  0  0  0  0  0  0  0
   -0.1381    2.5526   -5.6136 C   0  0  0  0  0  0  0  0  0  0  0  0
    0.9792    3.2441   -5.1572 C   0  0  0  0  0  0  0  0  0  0  0  0
    1.4538    3.0204   -3.8642 C   0  0  0  0  0  0  0  0  0  0  0  0
    0.8155    2.1017   -3.0130 C   0  0  0  0  0  0  0  0  0  0  0  0
    1.2713    1.8599   -1.7082 C   0  0  0  0  0  0  0  0  0  0  0  0
    0.6490    0.9373   -0.8242 C   0  0  0  0  0  0  0  0  0  0  0  0
    1.1290    0.7039    0.5020 C   0  0  0  0  0  0  0  0  0  0  0  0
    2.3192    1.4545    0.9933 C   0  0  0  0  0  0  0  0  0  0  0  0
    2.1035    2.6816    1.6499 C   0  0  0  0  0  0  0  0  0  0  0  0
    3.1710    3.4326    2.1264 C   0  0  0  0  0  0  0  0  0  0  0  0
    4.4716    2.9688    1.9533 C   0  0  0  0  0  0  0  0  0  0  0  0
    4.7268    1.7511    1.3036 C   0  0  0  0  0  0  0  0  0  0  0  0
    6.0502    1.3072    1.1392 C   0  0  0  0  0  0  0  0  0  0  0  0
    6.3596    0.1024    0.4981 C   0  0  0  0  0  0  0  0  0  0  0  0
    7.7236   -0.2690    0.3744 C   0  0  0  0  0  0  0  0  0  0  0  0
    7.8927   -1.4870   -0.2814 C   0  0  0  0  0  0  0  0  0  0  0  0
    9.1228   -2.0492   -0.5163 C   0  0  0  0  0  0  0  0  0  0  0  0
    8.9701   -3.5506   -1.3455 S   0  0  0  0  0  0  0  0  0  0  0  0
    7.2522   -3.4394   -1.3864 C   0  0  0  0  0  0  0  0  0  0  0  0
    6.8169   -2.2866   -0.7817 C   0  0  0  0  0  0  0  0  0  0  0  0
    5.4704   -1.9441   -0.6737 C   0  0  0  0  0  0  0  0  0  0  0  0
    5.2707   -0.7069   -0.0084 C   0  0  0  0  0  0  0  0  0  0  0  0
    3.9587   -0.2461    0.1664 C   0  0  0  0  0  0  0  0  0  0  0  0
    3.6511    0.9745    0.8144 C   0  0  0  0  0  0  0  0  0  0  0  0
    0.4810   -0.2338    1.3646 C   0  0  0  0  0  0  0  0  0  0  0  0
    0.9363   -0.4944    2.6853 C   0  0  0  0  0  0  0  0  0  0  0  0
    0.3109   -1.4072    3.5484 C   0  0  0  0  0  0  0  0  0  0  0  0
    0.7866   -1.6433    4.8501 C   0  0  0  0  0  0  0  0  0  0  0  0
    0.1443   -2.5532    5.6908 C   0  0  0  0  0  0  0  0  0  0  0  0
   -0.9804   -3.2367    5.2402 C   0  0  0  0  0  0  0  0  0  0  0  0
   -1.4595   -3.0114    3.9488 C   0  0  0  0  0  0  0  0  0  0  0  0
   -0.8191   -2.0980    3.0932 C   0  0  0  0  0  0  0  0  0  0  0  0
   -1.2779   -1.8555    1.7888 C   0  0  0  0  0  0  0  0  0  0  0  0
   -0.6523   -0.9383    0.9012 C   0  0  0  0  0  0  0  0  0  0  0  0
   -2.0775   -2.7086   -1.5565 C   0  0  0  0  0  0  0  0  0  0  0  0
   -2.9397   -4.4203   -2.5333 H   0  0  0  0  0  0  0  0  0  0  0  0
   -5.2490   -3.6072   -2.3128 H   0  0  0  0  0  0  0  0  0  0  0  0
   -6.8361   -1.9413   -1.5798 H   0  0  0  0  0  0  0  0  0  0  0  0
   -8.5316   -0.3309   -0.8860 H   0  0  0  0  0  0  0  0  0  0  0  0
  -10.1166    1.7005    0.0368 H   0  0  0  0  0  0  0  0  0  0  0  0
   -6.7254    4.2671    1.6894 H   0  0  0  0  0  0  0  0  0  0  0  0
   -4.6949    2.5740    0.9808 H   0  0  0  0  0  0  0  0  0  0  0  0
   -3.1612    0.8614    0.2242 H   0  0  0  0  0  0  0  0  0  0  0  0
   -1.8044   -0.0410   -2.9956 H   0  0  0  0  0  0  0  0  0  0  0  0
   -1.6506    1.1045   -5.1484 H   0  0  0  0  0  0  0  0  0  0  0  0
   -0.5119    2.7238   -6.6194 H   0  0  0  0  0  0  0  0  0  0  0  0
    1.4820    3.9570   -5.8052 H   0  0  0  0  0  0  0  0  0  0  0  0
    2.3289    3.5687   -3.5221 H   0  0  0  0  0  0  0  0  0  0  0  0
    2.1481    2.4148   -1.3763 H   0  0  0  0  0  0  0  0  0  0  0  0
    1.0891    3.0526    1.7879 H   0  0  0  0  0  0  0  0  0  0  0  0
    2.9903    4.3784    2.6302 H   0  0  0  0  0  0  0  0  0  0  0  0
    5.2938    3.5728    2.3327 H   0  0  0  0  0  0  0  0  0  0  0  0
    6.8612    1.9242    1.5246 H   0  0  0  0  0  0  0  0  0  0  0  0
    8.5401    0.3334    0.7509 H   0  0  0  0  0  0  0  0  0  0  0  0
   10.1034   -1.6761   -0.2549 H   0  0  0  0  0  0  0  0  0  0  0  0
    6.6726   -4.2255   -1.8504 H   0  0  0  0  0  0  0  0  0  0  0  0
    4.6585   -2.5513   -1.0536 H   0  0  0  0  0  0  0  0  0  0  0  0
    3.1426   -0.8586   -0.2165 H   0  0  0  0  0  0  0  0  0  0  0  0
    1.8137    0.0287    3.0641 H   0  0  0  0  0  0  0  0  0  0  0  0
    1.6647   -1.1164    5.2168 H   0  0  0  0  0  0  0  0  0  0  0  0
    0.5224   -2.7266    6.6949 H   0  0  0  0  0  0  0  0  0  0  0  0
   -1.4860   -3.9452    5.8911 H   0  0  0  0  0  0  0  0  0  0  0  0
   -2.3395   -3.5546    3.6115 H   0  0  0  0  0  0  0  0  0  0  0  0
   -2.1592   -2.4052    1.4600 H   0  0  0  0  0  0  0  0  0  0  0  0
   -1.0599   -3.0811   -1.6627 H   0  0  0  0  0  0  0  0  0  0  0  0
  1  2  4  0
  2  3  4  0
  3  4  4  0
  4  5  4  0
  5  6  4  0
  6  7  4  0
  7  8  4  0
  8  9  4  0
  9 10  4  0
 10 11  4  0
 11 12  4  0
 12 13  4  0
 13 14  4  0
 14 15  4  0
 15 16  4  0
 16 17  1  0
 17 18  4  0
 18 19  4  0
 19 20  4  0
 20 21  4  0
 21 22  4  0
 22 23  4  0
 23 24  4  0
 24 25  4  0
 25 26  4  0
 26 27  4  0
 27 28  4  0
 28 29  1  0
 29 30  4  0
 30 31  4  0
 31 32  4  0
 32 33  4  0
 33 34  4  0
 34 35  4  0
 35 36  4  0
 36 37  4  0
 37 38  4  0
 38 39  4  0
 39 40  4  0
 40 41  4  0
 41 42  4  0
 42 43  4  0
 43 44  4  0
 44 45  4  0
 28 46  4  0
 46 47  4  0
 47 48  4  0
 48 49  4  0
 49 50  4  0
 50 51  4  0
 51 52  4  0
 52 53  4  0
 53 54  4  0
 54 55  4  0
 16 56  4  0
 56  1  4  0
 15  3  4  0
 55 17  4  0
 13  5  4  0
 27 18  4  0
 45 29  4  0
 55 46  4  0
 11  7  4  0
 25 20  4  0
 45 33  4  0
 53 48  4  0
 43 35  4  0
 41 37  4  0
  1 57  1  0
  2 58  1  0
  4 59  1  0
  6 60  1  0
  8 61  1  0
 10 62  1  0
 12 63  1  0
 14 64  1  0
 19 65  1  0
 21 66  1  0
 22 67  1  0
 23 68  1  0
 24 69  1  0
 26 70  1  0
 30 71  1  0
 31 72  1  0
 32 73  1  0
 34 74  1  0
 36 75  1  0
 38 76  1  0
 40 77  1  0
 42 78  1  0
 44 79  1  0
 47 80  1  0
 49 81  1  0
 50 82  1  0
 51 83  1  0
 52 84  1  0
 54 85  1  0
 56 86  1  0
M  END
