
     RDKit          3D

 86 98  0  0  0  0  0  0  0  0999 V2000
   -7.0381    5.4088    1.6919 C   0  0  0  0  0  0  0  0  0  0  0  0
   -7.3663    4.0525    1.7101 C   0  0  0  0  0  0  0  0  0  0  0  0
   -6.3899    3.0719    1.4668 C   0  0  0  0  0  0  0  0  0  0  0  0
   -6.7100    1.7039    1.4823 C   0  0  0  0  0  0  0  0  0  0  0  0
   -5.7474    0.7148    1.2426 C   0  0  0  0  0  0  0  0  0  0  0  0
   -6.1526   -0.6432    1.2778 C   0  0  0  0  0  0  0  0  0  0  0  0
   -5.1052   -1.5284    1.0288 C   0  0  0  0  0  0  0  0  0  0  0  0
   -5.2703   -2.8903    1.0199 C   0  0  0  0  0  0  0  0  0  0  0  0
   -3.7872   -3.6931    0.6901 S   0  0  0  0  0  0  0  0  0  0  0  0
   -2.9169   -2.2060    0.5574 C   0  0  0  0  0  0  0  0  0  0  0  0
   -1.4671   -2.2563    0.2688 C   0  0  0  0  0  0  0  0  0  0  0  0
   -1.0263   -2.2514   -1.0900 C   0  0  0  0  0  0  0  0  0  0  0  0
   -1.9237   -2.1880   -2.1918 C   0  0  0  0  0  0  0  0  0  0  0  0
   -1.4994   -2.1747   -3.5296 C   0  0  0  0  0  0  0  0  0  0  0  0
   -2.4112   -2.1088   -4.5977 C   0  0  0  0  0  0  0  0  0  0  0  0
   -1.9628   -2.0956   -5.9191 C   0  0  0  0  0  0  0  0  0  0  0  0
   -0.5990   -2.1475   -6.1881 C   0  0  0  0  0  0  0  0  0  0  0  0
    0.3147   -2.2127   -5.1352 C   0  0  0  0  0  0  0  0  0  0  0  0
   -0.1263   -2.2269   -3.8005 C   0  0  0  0  0  0  0  0  0  0  0  0
    0.7718   -2.2899   -2.7239 C   0  0  0  0  0  0  0  0  0  0  0  0
    0.3579   -2.3032   -1.3631 C   0  0  0  0  0  0  0  0  0  0  0  0
    1.2803   -2.3576   -0.2734 C   0  0  0  0  0  0  0  0  0  0  0  0
    2.7304   -2.4147   -0.5598 C   0  0  0  0  0  0  0  0  0  0  0  0
    3.6527   -1.4026   -0.7272 C   0  0  0  0  0  0  0  0  0  0  0  0
    3.3399   -0.0427   -0.6447 C   0  0  0  0  0  0  0  0  0  0  0  0
    4.4600    0.7999   -0.8532 C   0  0  0  0  0  0  0  0  0  0  0  0
    4.2696    2.1861   -0.7922 C   0  0  0  0  0  0  0  0  0  0  0  0
    5.3273    3.0895   -0.9870 C   0  0  0  0  0  0  0  0  0  0  0  0
    5.1215    4.4774   -0.9218 C   0  0  0  0  0  0  0  0  0  0  0  0
    6.1789    5.3670   -1.1162 C   0  0  0  0  0  0  0  0  0  0  0  0
    7.4554    4.8807   -1.3784 C   0  0  0  0  0  0  0  0  0  0  0  0
    7.6757    3.5043   -1.4463 C   0  0  0  0  0  0  0  0  0  0  0  0
    6.6216    2.5960   -1.2526 C   0  0  0  0  0  0  0  0  0  0  0  0
    6.8326    1.2085   -1.3178 C   0  0  0  0  0  0  0  0  0  0  0  0
    5.7914    0.2913   -1.1255 C   0  0  0  0  0  0  0  0  0  0  0  0
    6.0876   -1.0929   -1.2053 C   0  0  0  0  0  0  0  0  0  0  0  0
    4.9701   -1.8993   -0.9955 C   0  0  0  0  0  0  0  0  0  0  0  0
    5.0266   -3.2696   -1.0262 C   0  0  0  0  0  0  0  0  0  0  0  0
    3.4819   -3.9616   -0.7291 S   0  0  0  0  0  0  0  0  0  0  0  0
    0.8407   -2.3271    1.0856 C   0  0  0  0  0  0  0  0  0  0  0  0
    1.7396   -2.3359    2.1880 C   0  0  0  0  0  0  0  0  0  0  0  0
    1.3171   -2.2950    3.5258 C   0  0  0  0  0  0  0  0  0  0  0  0
    2.2308   -2.2976    4.5942 C   0  0  0  0  0  0  0  0  0  0  0  0
    1.7834   -2.2553    5.9154 C   0  0  0  0  0  0  0  0  0  0  0  0
    0.4192   -2.2093    6.1837 C   0  0  0  0  0  0  0  0  0  0  0  0
   -0.4961   -2.2054    5.1305 C   0  0  0  0  0  0  0  0  0  0  0  0
   -0.0561   -2.2480    3.7962 C   0  0  0  0  0  0  0  0  0  0  0  0
   -0.9557   -2.2420    2.7194 C   0  0  0  0  0  0  0  0  0  0  0  0
   -0.5434   -2.2773    1.3586 C   0  0  0  0  0  0  0  0  0  0  0  0
   -3.7550   -1.1292    0.7612 C   0  0  0  0  0  0  0  0  0  0  0  0
   -3.3356    0.2039    0.7198 C   0  0  0  0  0  0  0  0  0  0  0  0
   -4.3826    1.1255    0.9716 C   0  0  0  0  0  0  0  0  0  0  0  0
   -4.0831    2.4940    0.9592 C   0  0  0  0  0  0  0  0  0  0  0  0
   -5.0634    3.4709    1.2021 C   0  0  0  0  0  0  0  0  0  0  0  0
   -4.7489    4.8401    1.1871 C   0  0  0  0  0  0  0  0  0  0  0  0
   -5.7300    5.8024    1.4304 C   0  0  0  0  0  0  0  0  0  0  0  0
   -7.8042    6.1559    1.8819 H   0  0  0  0  0  0  0  0  0  0  0  0
   -8.3949    3.7653    1.9166 H   0  0  0  0  0  0  0  0  0  0  0  0
   -7.7384    1.4097    1.6874 H   0  0  0  0  0  0  0  0  0  0  0  0
   -7.1699   -0.9530    1.4807 H   0  0  0  0  0  0  0  0  0  0  0  0
   -6.1688   -3.4678    1.1884 H   0  0  0  0  0  0  0  0  0  0  0  0
   -2.9967   -2.1428   -2.0102 H   0  0  0  0  0  0  0  0  0  0  0  0
   -3.4809   -2.0659   -4.4041 H   0  0  0  0  0  0  0  0  0  0  0  0
   -2.6783   -2.0445   -6.7354 H   0  0  0  0  0  0  0  0  0  0  0  0
   -0.2447   -2.1372   -7.2152 H   0  0  0  0  0  0  0  0  0  0  0  0
    1.3779   -2.2527   -5.3624 H   0  0  0  0  0  0  0  0  0  0  0  0
    1.8337   -2.3253   -2.9642 H   0  0  0  0  0  0  0  0  0  0  0  0
    2.3463    0.3379   -0.4418 H   0  0  0  0  0  0  0  0  0  0  0  0
    3.2748    2.5797   -0.5867 H   0  0  0  0  0  0  0  0  0  0  0  0
    4.1309    4.8778   -0.7177 H   0  0  0  0  0  0  0  0  0  0  0  0
    6.0043    6.4384   -1.0628 H   0  0  0  0  0  0  0  0  0  0  0  0
    8.2808    5.5713   -1.5305 H   0  0  0  0  0  0  0  0  0  0  0  0
    8.6816    3.1448   -1.6521 H   0  0  0  0  0  0  0  0  0  0  0  0
    7.8372    0.8409   -1.5226 H   0  0  0  0  0  0  0  0  0  0  0  0
    7.0799   -1.4756   -1.4078 H   0  0  0  0  0  0  0  0  0  0  0  0
    5.8786   -3.9114   -1.2040 H   0  0  0  0  0  0  0  0  0  0  0  0
    2.8131   -2.3708    2.0070 H   0  0  0  0  0  0  0  0  0  0  0  0
    3.3010   -2.3316    4.4015 H   0  0  0  0  0  0  0  0  0  0  0  0
    2.5001   -2.2581    6.7323 H   0  0  0  0  0  0  0  0  0  0  0  0
    0.0656   -2.1761    7.2107 H   0  0  0  0  0  0  0  0  0  0  0  0
   -1.5595   -2.1680    5.3574 H   0  0  0  0  0  0  0  0  0  0  0  0
   -2.0174   -2.2038    2.9599 H   0  0  0  0  0  0  0  0  0  0  0  0
   -2.3161    0.5107    0.5205 H   0  0  0  0  0  0  0  0  0  0  0  0
   -3.0622    2.8152    0.7563 H   0  0  0  0  0  0  0  0  0  0  0  0
   -3.7321    5.1687    0.9842 H   0  0  0  0  0  0  0  0  0  0  0  0
   -5.4712    6.8579    1.4153 H   0  0  0  0  0  0  0  0  0  0  0  0
  1  2  4  0
  2  3  4  0
  3  4  4  0
  4  5  4  0
  5  6  4  0
  6  7  4  0
  7  8  4  0
  8  9  4  0
  9 10  4  0
 10 11  1  0
 11 12  4  0
 12 13  4  0
 13 14  4  0
 14 15  4  0
 15 16  4  0
 16 17  4  0
 17 18  4  0
 18 19  4  0
 19 20  4  0
 20 21  4  0
 21 22  4  0
 22 23  1  0
 23 24  4  0
 24 25  4  0
 25 26  4  0
 26 27  4  0
 27 28  4  0
 28 29  4  0
 29 30  4  0
 30 31  4  0
 31 32  4  0
 32 33  4  0
 33 34  4  0
 34 35  4  0
 35 36  4  0
 36 37  4  0
 37 38  4  0
 38 39  4  0
 22 40  4  0
 40 41  4  0
 41 42  4  0
 42 43  4  0
 43 44  4  0
 44 45  4  0
 45 46  4  0
 46 47  4  0
 47 48  4  0
 48 49  4  0
 10 50  4  0
 50 51  4  0
 51 52  4  0
 52 53  4  0
 53 54  4  0
 54 55  4  0
 55 56  4  0
 56  1  4  0
 54  3  4  0
 52  5  4  0
 50  7  4  0
 49 11  4  0
 21 12  4  0
 39 23  4  0
 49 40  4  0
 19 14  4  0
 37 24  4  0
 47 42  4  0
 35 26  4  0
 33 28  4  0
  1 57  1  0
  2 58  1  0
  4 59  1  0
  6 60  1  0
  8 61  1  0
 13 62  1  0
 15 63  1  0
 16 64  1  0
 17 65  1  0
 18 66  1  0
 20 67  1  0
 25 68  1  0
 27 69  1  0
 29 70  1  0
 30 71  1  0
 31 72  1  0
 32 73  1  0
 34 74  1  0
 36 75  1  0
 38 76  1  0
 41 77  1  0
 43 78  1  0
 44 79  1  0
 45 80  1  0
 46 81  1  0
 48 82  1  0
 51 83  1  0
 53 84  1  0
 55 85  1  0
 56 86  1  0
M  END
