
     RDKit          3D

 86 98  0  0  0  0  0  0  0  0999 V2000
   -6.7180   -3.6467    1.8118 C   0  0  0  0  0  0  0  0  0  0  0  0
   -7.0127   -2.6121    0.9228 C   0  0  0  0  0  0  0  0  0  0  0  0
   -6.0452   -1.6448    0.5990 C   0  0  0  0  0  0  0  0  0  0  0  0
   -6.3267   -0.5754   -0.2606 C   0  0  0  0  0  0  0  0  0  0  0  0
   -5.3634    0.3918   -0.5876 C   0  0  0  0  0  0  0  0  0  0  0  0
   -5.8247    1.5089   -1.3017 C   0  0  0  0  0  0  0  0  0  0  0  0
   -4.8765    2.5186   -1.3111 C   0  0  0  0  0  0  0  0  0  0  0  0
   -5.2162    3.8012   -1.6680 C   0  0  0  0  0  0  0  0  0  0  0  0
   -3.9361    4.8847   -1.3244 S   0  0  0  0  0  0  0  0  0  0  0  0
   -2.9558    3.6149   -0.7071 C   0  0  0  0  0  0  0  0  0  0  0  0
   -3.4958    2.3635   -0.9242 C   0  0  0  0  0  0  0  0  0  0  0  0
   -2.8964    1.1271   -0.5714 C   0  0  0  0  0  0  0  0  0  0  0  0
   -1.3907    0.8029   -0.5774 C   0  0  0  0  0  0  0  0  0  0  0  0
   -0.8932   -0.5058   -0.3122 C   0  0  0  0  0  0  0  0  0  0  0  0
   -1.5587   -1.6891   -0.7274 C   0  0  0  0  0  0  0  0  0  0  0  0
   -1.1702   -2.9749   -0.3220 C   0  0  0  0  0  0  0  0  0  0  0  0
   -1.9064   -4.1171   -0.6798 C   0  0  0  0  0  0  0  0  0  0  0  0
   -1.5203   -5.3814   -0.2351 C   0  0  0  0  0  0  0  0  0  0  0  0
   -0.3921   -5.5176    0.5675 C   0  0  0  0  0  0  0  0  0  0  0  0
    0.3499   -4.3899    0.9231 C   0  0  0  0  0  0  0  0  0  0  0  0
   -0.0327   -3.1107    0.4842 C   0  0  0  0  0  0  0  0  0  0  0  0
    0.7073   -1.9615    0.8028 C   0  0  0  0  0  0  0  0  0  0  0  0
    0.3394   -0.6629    0.3597 C   0  0  0  0  0  0  0  0  0  0  0  0
    1.1779    0.4695    0.5274 C   0  0  0  0  0  0  0  0  0  0  0  0
    2.4086    0.3815    1.3406 C   0  0  0  0  0  0  0  0  0  0  0  0
    3.7015   -0.0557    0.8751 C   0  0  0  0  0  0  0  0  0  0  0  0
    3.8892   -0.4529   -0.4660 C   0  0  0  0  0  0  0  0  0  0  0  0
    5.1285   -0.8892   -0.9667 C   0  0  0  0  0  0  0  0  0  0  0  0
    5.2793   -1.2802   -2.3077 C   0  0  0  0  0  0  0  0  0  0  0  0
    6.5145   -1.7130   -2.7927 C   0  0  0  0  0  0  0  0  0  0  0  0
    7.6156   -1.7600   -1.9440 C   0  0  0  0  0  0  0  0  0  0  0  0
    7.4808   -1.3735   -0.6098 C   0  0  0  0  0  0  0  0  0  0  0  0
    6.2422   -0.9367   -0.1083 C   0  0  0  0  0  0  0  0  0  0  0  0
    6.0914   -0.5469    1.2310 C   0  0  0  0  0  0  0  0  0  0  0  0
    4.8632   -0.1109    1.7476 C   0  0  0  0  0  0  0  0  0  0  0  0
    4.8294    0.2554    3.1142 C   0  0  0  0  0  0  0  0  0  0  0  0
    3.5719    0.6727    3.5405 C   0  0  0  0  0  0  0  0  0  0  0  0
    3.3296    1.0693    4.8325 C   0  0  0  0  0  0  0  0  0  0  0  0
    1.6862    1.5223    5.0437 S   0  0  0  0  0  0  0  0  0  0  0  0
    1.3091    1.1860    3.3999 C   0  0  0  0  0  0  0  0  0  0  0  0
    2.4098    0.7371    2.7046 C   0  0  0  0  0  0  0  0  0  0  0  0
    0.8851    1.6394   -0.2211 C   0  0  0  0  0  0  0  0  0  0  0  0
    1.8251    2.6911   -0.3834 C   0  0  0  0  0  0  0  0  0  0  0  0
    1.6370    3.7414   -1.2936 C   0  0  0  0  0  0  0  0  0  0  0  0
    2.5914    4.7589   -1.4631 C   0  0  0  0  0  0  0  0  0  0  0  0
    2.3991    5.7664   -2.4096 C   0  0  0  0  0  0  0  0  0  0  0  0
    1.2542    5.7660   -3.2006 C   0  0  0  0  0  0  0  0  0  0  0  0
    0.3008    4.7595   -3.0409 C   0  0  0  0  0  0  0  0  0  0  0  0
    0.4814    3.7447   -2.0847 C   0  0  0  0  0  0  0  0  0  0  0  0
   -0.4745    2.7356   -1.8834 C   0  0  0  0  0  0  0  0  0  0  0  0
   -0.3617    1.7385   -0.8807 C   0  0  0  0  0  0  0  0  0  0  0  0
   -3.9865    0.2482   -0.1333 C   0  0  0  0  0  0  0  0  0  0  0  0
   -3.7990   -0.7679    0.8341 C   0  0  0  0  0  0  0  0  0  0  0  0
   -4.7715   -1.7252    1.1792 C   0  0  0  0  0  0  0  0  0  0  0  0
   -4.4900   -2.7660    2.0804 C   0  0  0  0  0  0  0  0  0  0  0  0
   -5.4565   -3.7225    2.3924 C   0  0  0  0  0  0  0  0  0  0  0  0
   -7.4735   -4.3897    2.0526 H   0  0  0  0  0  0  0  0  0  0  0  0
   -8.0070   -2.5634    0.4851 H   0  0  0  0  0  0  0  0  0  0  0  0
   -7.3396   -0.4787   -0.6505 H   0  0  0  0  0  0  0  0  0  0  0  0
   -6.8534    1.6389   -1.6125 H   0  0  0  0  0  0  0  0  0  0  0  0
   -6.1602    4.1789   -2.0367 H   0  0  0  0  0  0  0  0  0  0  0  0
   -2.0265    3.8864   -0.2273 H   0  0  0  0  0  0  0  0  0  0  0  0
   -2.4304   -1.6024   -1.3768 H   0  0  0  0  0  0  0  0  0  0  0  0
   -2.7983   -4.0238   -1.2960 H   0  0  0  0  0  0  0  0  0  0  0  0
   -2.1022   -6.2560   -0.5132 H   0  0  0  0  0  0  0  0  0  0  0  0
   -0.0865   -6.5006    0.9150 H   0  0  0  0  0  0  0  0  0  0  0  0
    1.2335   -4.5154    1.5449 H   0  0  0  0  0  0  0  0  0  0  0  0
    1.6227   -2.0964    1.3774 H   0  0  0  0  0  0  0  0  0  0  0  0
    3.0456   -0.4268   -1.1557 H   0  0  0  0  0  0  0  0  0  0  0  0
    4.4298   -1.2507   -2.9871 H   0  0  0  0  0  0  0  0  0  0  0  0
    6.6133   -2.0134   -3.8325 H   0  0  0  0  0  0  0  0  0  0  0  0
    8.5786   -2.0965   -2.3186 H   0  0  0  0  0  0  0  0  0  0  0  0
    8.3528   -1.4162    0.0388 H   0  0  0  0  0  0  0  0  0  0  0  0
    6.9627   -0.5877    1.8842 H   0  0  0  0  0  0  0  0  0  0  0  0
    5.6979    0.2135    3.7601 H   0  0  0  0  0  0  0  0  0  0  0  0
    4.0141    1.1216    5.6680 H   0  0  0  0  0  0  0  0  0  0  0  0
    0.2975    1.3410    3.0494 H   0  0  0  0  0  0  0  0  0  0  0  0
    2.7633    2.6677    0.1695 H   0  0  0  0  0  0  0  0  0  0  0  0
    3.4975    4.7675   -0.8612 H   0  0  0  0  0  0  0  0  0  0  0  0
    3.1466    6.5459   -2.5303 H   0  0  0  0  0  0  0  0  0  0  0  0
    1.1014    6.5479   -3.9399 H   0  0  0  0  0  0  0  0  0  0  0  0
   -0.5928    4.7763   -3.6610 H   0  0  0  0  0  0  0  0  0  0  0  0
   -1.3414    2.7206   -2.5440 H   0  0  0  0  0  0  0  0  0  0  0  0
   -2.8492   -0.8218    1.3652 H   0  0  0  0  0  0  0  0  0  0  0  0
   -3.5037   -2.8477    2.5335 H   0  0  0  0  0  0  0  0  0  0  0  0
   -5.2203   -4.5257    3.0852 H   0  0  0  0  0  0  0  0  0  0  0  0
  1  2  4  0
  2  3  4  0
  3  4  4  0
  4  5  4  0
  5  6  4  0
  6  7  4  0
  7  8  4  0
  8  9  4  0
  9 10  4  0
 10 11  4  0
 11 12  4  0
 12 13  1  0
 13 14  4  0
 14 15  4  0
 15 16  4  0
 16 17  4  0
 17 18  4  0
 18 19  4  0
 19 20  4  0
 20 21  4  0
 21 22  4  0
 22 23  4  0
 23 24  4  0
 24 25  1  0
 25 26  4  0
 26 27  4  0
 27 28  4  0
 28 29  4  0
 29 30  4  0
 30 31  4  0
 31 32  4  0
 32 33  4  0
 33 34  4  0
 34 35  4  0
 35 36  4  0
 36 37  4  0
 37 38  4  0
 38 39  4  0
 39 40  4  0
 40 41  4  0
 24 42  4  0
 42 43  4  0
 43 44  4  0
 44 45  4  0
 45 46  4  0
 46 47  4  0
 47 48  4  0
 48 49  4  0
 49 50  4  0
 50 51  4  0
 12 52  4  0
 52 53  4  0
 53 54  4  0
 54 55  4  0
 55 56  4  0
 56  1  4  0
 54  3  4  0
 52  5  4  0
 11  7  4  0
 51 13  4  0
 23 14  4  0
 41 25  4  0
 51 42  4  0
 21 16  4  0
 35 26  4  0
 41 37  4  0
 49 44  4  0
 33 28  4  0
  1 57  1  0
  2 58  1  0
  4 59  1  0
  6 60  1  0
  8 61  1  0
 10 62  1  0
 15 63  1  0
 17 64  1  0
 18 65  1  0
 19 66  1  0
 20 67  1  0
 22 68  1  0
 27 69  1  0
 29 70  1  0
 30 71  1  0
 31 72  1  0
 32 73  1  0
 34 74  1  0
 36 75  1  0
 38 76  1  0
 40 77  1  0
 43 78  1  0
 45 79  1  0
 46 80  1  0
 47 81  1  0
 48 82  1  0
 50 83  1  0
 53 84  1  0
 55 85  1  0
 56 86  1  0
M  END
