
     RDKit          3D

 56 62  0  0  0  0  0  0  0  0999 V2000
    5.4024    1.8136    0.2378 C   0  0  0  0  0  0  0  0  0  0  0  0
    4.7172    1.5022    1.4109 C   0  0  0  0  0  0  0  0  0  0  0  0
    3.3967    1.0538    1.3503 C   0  0  0  0  0  0  0  0  0  0  0  0
    2.7448    0.9126    0.1144 C   0  0  0  0  0  0  0  0  0  0  0  0
    1.3394    0.4435    0.0510 C   0  0  0  0  0  0  0  0  0  0  0  0
    0.2760    1.3974    0.1057 C   0  0  0  0  0  0  0  0  0  0  0  0
    0.5104    2.7951    0.2169 C   0  0  0  0  0  0  0  0  0  0  0  0
   -0.5199    3.7466    0.2733 C   0  0  0  0  0  0  0  0  0  0  0  0
   -0.2550    5.1226    0.3854 C   0  0  0  0  0  0  0  0  0  0  0  0
   -1.2977    6.0483    0.4400 C   0  0  0  0  0  0  0  0  0  0  0  0
   -2.6163    5.6094    0.3826 C   0  0  0  0  0  0  0  0  0  0  0  0
   -2.8904    4.2458    0.2710 C   0  0  0  0  0  0  0  0  0  0  0  0
   -1.8475    3.3048    0.2158 C   0  0  0  0  0  0  0  0  0  0  0  0
   -2.0955    1.9278    0.1050 C   0  0  0  0  0  0  0  0  0  0  0  0
   -1.0635    0.9517    0.0490 C   0  0  0  0  0  0  0  0  0  0  0  0
   -1.3367   -0.4470   -0.0604 C   0  0  0  0  0  0  0  0  0  0  0  0
   -2.7427   -0.9150   -0.1149 C   0  0  0  0  0  0  0  0  0  0  0  0
   -3.3994   -1.0706   -1.3465 C   0  0  0  0  0  0  0  0  0  0  0  0
   -4.7231   -1.5118   -1.3961 C   0  0  0  0  0  0  0  0  0  0  0  0
   -5.4065   -1.8009   -0.2162 C   0  0  0  0  0  0  0  0  0  0  0  0
   -4.7686   -1.6504    1.0138 C   0  0  0  0  0  0  0  0  0  0  0  0
   -3.4445   -1.2112    1.0649 C   0  0  0  0  0  0  0  0  0  0  0  0
   -0.2735   -1.4007   -0.1155 C   0  0  0  0  0  0  0  0  0  0  0  0
   -0.5088   -2.7984   -0.2237 C   0  0  0  0  0  0  0  0  0  0  0  0
    0.5210   -3.7503   -0.2802 C   0  0  0  0  0  0  0  0  0  0  0  0
    0.2547   -5.1265   -0.3884 C   0  0  0  0  0  0  0  0  0  0  0  0
    1.2967   -6.0529   -0.4432 C   0  0  0  0  0  0  0  0  0  0  0  0
    2.6158   -5.6147   -0.3904 C   0  0  0  0  0  0  0  0  0  0  0  0
    2.8913   -4.2508   -0.2826 C   0  0  0  0  0  0  0  0  0  0  0  0
    1.8491   -3.3089   -0.2267 C   0  0  0  0  0  0  0  0  0  0  0  0
    2.0979   -1.9316   -0.1183 C   0  0  0  0  0  0  0  0  0  0  0  0
    1.0663   -0.9551   -0.0605 C   0  0  0  0  0  0  0  0  0  0  0  0
    3.4490    1.2293   -1.0588 C   0  0  0  0  0  0  0  0  0  0  0  0
    4.7700    1.6769   -0.9967 C   0  0  0  0  0  0  0  0  0  0  0  0
    6.4301    2.1640    0.2857 H   0  0  0  0  0  0  0  0  0  0  0  0
    5.2092    1.6090    2.3741 H   0  0  0  0  0  0  0  0  0  0  0  0
    2.8707    0.8147    2.2725 H   0  0  0  0  0  0  0  0  0  0  0  0
    1.5341    3.1652    0.2626 H   0  0  0  0  0  0  0  0  0  0  0  0
    0.7710    5.4807    0.4316 H   0  0  0  0  0  0  0  0  0  0  0  0
   -1.0791    7.1090    0.5272 H   0  0  0  0  0  0  0  0  0  0  0  0
   -3.4319    6.3262    0.4248 H   0  0  0  0  0  0  0  0  0  0  0  0
   -3.9267    3.9182    0.2275 H   0  0  0  0  0  0  0  0  0  0  0  0
   -3.1368    1.6104    0.0615 H   0  0  0  0  0  0  0  0  0  0  0  0
   -2.8751   -0.8468   -2.2736 H   0  0  0  0  0  0  0  0  0  0  0  0
   -5.2194   -1.6293   -2.3558 H   0  0  0  0  0  0  0  0  0  0  0  0
   -6.4373   -2.1439   -0.2555 H   0  0  0  0  0  0  0  0  0  0  0  0
   -5.3005   -1.8741    1.9348 H   0  0  0  0  0  0  0  0  0  0  0  0
   -2.9560   -1.0978    2.0308 H   0  0  0  0  0  0  0  0  0  0  0  0
   -1.5327   -3.1681   -0.2663 H   0  0  0  0  0  0  0  0  0  0  0  0
   -0.7716   -5.4848   -0.4308 H   0  0  0  0  0  0  0  0  0  0  0  0
    1.0770   -7.1138   -0.5270 H   0  0  0  0  0  0  0  0  0  0  0  0
    3.4307   -6.3321   -0.4330 H   0  0  0  0  0  0  0  0  0  0  0  0
    3.9283   -3.9248   -0.2424 H   0  0  0  0  0  0  0  0  0  0  0  0
    3.1394   -1.6142   -0.0777 H   0  0  0  0  0  0  0  0  0  0  0  0
    2.9641    1.1279   -2.0278 H   0  0  0  0  0  0  0  0  0  0  0  0
    5.3038    1.9197   -1.9118 H   0  0  0  0  0  0  0  0  0  0  0  0
  1  2  4  0
  2  3  4  0
  3  4  4  0
  4  5  1  0
  5  6  4  0
  6  7  4  0
  7  8  4  0
  8  9  4  0
  9 10  4  0
 10 11  4  0
 11 12  4  0
 12 13  4  0
 13 14  4  0
 14 15  4  0
 15 16  4  0
 16 17  1  0
 17 18  4  0
 18 19  4  0
 19 20  4  0
 20 21  4  0
 21 22  4  0
 16 23  4  0
 23 24  4  0
 24 25  4  0
 25 26  4  0
 26 27  4  0
 27 28  4  0
 28 29  4  0
 29 30  4  0
 30 31  4  0
 31 32  4  0
  4 33  4  0
 33 34  4  0
 34  1  4  0
 32  5  4  0
 15  6  4  0
 22 17  4  0
 32 23  4  0
 13  8  4  0
 30 25  4  0
  1 35  1  0
  2 36  1  0
  3 37  1  0
  7 38  1  0
  9 39  1  0
 10 40  1  0
 11 41  1  0
 12 42  1  0
 14 43  1  0
 18 44  1  0
 19 45  1  0
 20 46  1  0
 21 47  1  0
 22 48  1  0
 24 49  1  0
 26 50  1  0
 27 51  1  0
 28 52  1  0
 29 53  1  0
 31 54  1  0
 33 55  1  0
 34 56  1  0
M  END
