
     RDKit          3D

 84 96  0  0  0  0  0  0  0  0999 V2000
   -6.8518    1.1005    2.7813 C   0  0  0  0  0  0  0  0  0  0  0  0
   -7.6700    0.5787    1.7813 C   0  0  0  0  0  0  0  0  0  0  0  0
   -7.1124    0.0177    0.6229 C   0  0  0  0  0  0  0  0  0  0  0  0
   -5.7052   -0.0166    0.4704 C   0  0  0  0  0  0  0  0  0  0  0  0
   -4.8821    0.5146    1.4862 C   0  0  0  0  0  0  0  0  0  0  0  0
   -5.4666    1.0690    2.6344 C   0  0  0  0  0  0  0  0  0  0  0  0
   -3.4934    0.4812    1.3267 C   0  0  0  0  0  0  0  0  0  0  0  0
   -2.8950   -0.0685    0.1760 C   0  0  0  0  0  0  0  0  0  0  0  0
   -1.4077   -0.0438    0.0836 C   0  0  0  0  0  0  0  0  0  0  0  0
   -0.7607    1.0864   -0.5070 C   0  0  0  0  0  0  0  0  0  0  0  0
   -1.4850    2.1913   -1.0323 C   0  0  0  0  0  0  0  0  0  0  0  0
   -0.8679    3.3109   -1.6111 C   0  0  0  0  0  0  0  0  0  0  0  0
   -1.6128    4.3878   -2.1231 C   0  0  0  0  0  0  0  0  0  0  0  0
   -0.9744    5.4916   -2.6901 C   0  0  0  0  0  0  0  0  0  0  0  0
    0.4148    5.5318   -2.7516 C   0  0  0  0  0  0  0  0  0  0  0  0
    1.1634    4.4673   -2.2474 C   0  0  0  0  0  0  0  0  0  0  0  0
    0.5304    3.3498   -1.6753 C   0  0  0  0  0  0  0  0  0  0  0  0
    1.2594    2.2646   -1.1638 C   0  0  0  0  0  0  0  0  0  0  0  0
    0.6492    1.1209   -0.5804 C   0  0  0  0  0  0  0  0  0  0  0  0
    1.4080    0.0211   -0.0707 C   0  0  0  0  0  0  0  0  0  0  0  0
    2.8954    0.0486   -0.1689 C   0  0  0  0  0  0  0  0  0  0  0  0
    3.4889   -0.4579   -1.3421 C   0  0  0  0  0  0  0  0  0  0  0  0
    4.8765   -0.4637   -1.5192 C   0  0  0  0  0  0  0  0  0  0  0  0
    5.4565   -0.9654   -2.6941 C   0  0  0  0  0  0  0  0  0  0  0  0
    6.8402   -0.9649   -2.8598 C   0  0  0  0  0  0  0  0  0  0  0  0
    7.6617   -0.4646   -1.8518 C   0  0  0  0  0  0  0  0  0  0  0  0
    7.1093    0.0430   -0.6667 C   0  0  0  0  0  0  0  0  0  0  0  0
    5.7035    0.0463   -0.4958 C   0  0  0  0  0  0  0  0  0  0  0  0
    5.1285    0.5590    0.6957 C   0  0  0  0  0  0  0  0  0  0  0  0
    5.9781    1.0657    1.7115 C   0  0  0  0  0  0  0  0  0  0  0  0
    5.4222    1.5748    2.8910 C   0  0  0  0  0  0  0  0  0  0  0  0
    4.0441    1.5875    3.0730 C   0  0  0  0  0  0  0  0  0  0  0  0
    3.2062    1.0907    2.0757 C   0  0  0  0  0  0  0  0  0  0  0  0
    3.7200    0.5657    0.8688 C   0  0  0  0  0  0  0  0  0  0  0  0
    7.3665    1.0524    1.5259 C   0  0  0  0  0  0  0  0  0  0  0  0
    7.9257    0.5477    0.3514 C   0  0  0  0  0  0  0  0  0  0  0  0
    0.7606   -1.1093    0.5194 C   0  0  0  0  0  0  0  0  0  0  0  0
    1.4840   -2.2162    1.0407 C   0  0  0  0  0  0  0  0  0  0  0  0
    0.8658   -3.3316    1.6272 C   0  0  0  0  0  0  0  0  0  0  0  0
    1.6096   -4.4096    2.1382 C   0  0  0  0  0  0  0  0  0  0  0  0
    0.9710   -5.5078    2.7160 C   0  0  0  0  0  0  0  0  0  0  0  0
   -0.4176   -5.5413    2.7892 C   0  0  0  0  0  0  0  0  0  0  0  0
   -1.1656   -4.4763    2.2855 C   0  0  0  0  0  0  0  0  0  0  0  0
   -0.5325   -3.3645    1.7025 C   0  0  0  0  0  0  0  0  0  0  0  0
   -1.2613   -2.2794    1.1906 C   0  0  0  0  0  0  0  0  0  0  0  0
   -0.6496   -1.1413    0.5979 C   0  0  0  0  0  0  0  0  0  0  0  0
   -3.7147   -0.6104   -0.8525 C   0  0  0  0  0  0  0  0  0  0  0  0
   -3.1949   -1.1814   -2.0356 C   0  0  0  0  0  0  0  0  0  0  0  0
   -4.0287   -1.7002   -3.0251 C   0  0  0  0  0  0  0  0  0  0  0  0
   -5.4085   -1.6619   -2.8600 C   0  0  0  0  0  0  0  0  0  0  0  0
   -5.9700   -1.1056   -1.7046 C   0  0  0  0  0  0  0  0  0  0  0  0
   -5.1246   -0.5786   -0.6958 C   0  0  0  0  0  0  0  0  0  0  0  0
   -7.3599   -1.0634   -1.5367 C   0  0  0  0  0  0  0  0  0  0  0  0
   -7.9246   -0.5085   -0.3877 C   0  0  0  0  0  0  0  0  0  0  0  0
   -7.2936    1.5333    3.6750 H   0  0  0  0  0  0  0  0  0  0  0  0
   -8.7493    0.6143    1.9126 H   0  0  0  0  0  0  0  0  0  0  0  0
   -4.8435    1.4834    3.4242 H   0  0  0  0  0  0  0  0  0  0  0  0
   -2.8515    0.8930    2.1053 H   0  0  0  0  0  0  0  0  0  0  0  0
   -2.5739    2.1874   -0.9951 H   0  0  0  0  0  0  0  0  0  0  0  0
   -2.6998    4.3713   -2.0818 H   0  0  0  0  0  0  0  0  0  0  0  0
   -1.5630    6.3173   -3.0811 H   0  0  0  0  0  0  0  0  0  0  0  0
    0.9173    6.3895   -3.1908 H   0  0  0  0  0  0  0  0  0  0  0  0
    2.2492    4.5134   -2.3012 H   0  0  0  0  0  0  0  0  0  0  0  0
    2.3456    2.3221   -1.2238 H   0  0  0  0  0  0  0  0  0  0  0  0
    2.8437   -0.8504   -2.1279 H   0  0  0  0  0  0  0  0  0  0  0  0
    4.8318   -1.3615   -3.4920 H   0  0  0  0  0  0  0  0  0  0  0  0
    7.2780   -1.3542   -3.7753 H   0  0  0  0  0  0  0  0  0  0  0  0
    8.7394   -0.4730   -1.9989 H   0  0  0  0  0  0  0  0  0  0  0  0
    6.0602    1.9671    3.6797 H   0  0  0  0  0  0  0  0  0  0  0  0
    3.6180    1.9839    3.9909 H   0  0  0  0  0  0  0  0  0  0  0  0
    2.1328    1.1183    2.2546 H   0  0  0  0  0  0  0  0  0  0  0  0
    8.0297    1.4370    2.2978 H   0  0  0  0  0  0  0  0  0  0  0  0
    9.0079    0.5529    0.2406 H   0  0  0  0  0  0  0  0  0  0  0  0
    2.5725   -2.2161    0.9959 H   0  0  0  0  0  0  0  0  0  0  0  0
    2.6963   -4.3986    2.0882 H   0  0  0  0  0  0  0  0  0  0  0  0
    1.5586   -6.3342    3.1069 H   0  0  0  0  0  0  0  0  0  0  0  0
   -0.9200   -6.3944    3.2374 H   0  0  0  0  0  0  0  0  0  0  0  0
   -2.2508   -4.5173    2.3501 H   0  0  0  0  0  0  0  0  0  0  0  0
   -2.3475   -2.3318    1.2587 H   0  0  0  0  0  0  0  0  0  0  0  0
   -2.1201   -1.2288   -2.2016 H   0  0  0  0  0  0  0  0  0  0  0  0
   -3.5985   -2.1332   -3.9245 H   0  0  0  0  0  0  0  0  0  0  0  0
   -6.0432   -2.0706   -3.6430 H   0  0  0  0  0  0  0  0  0  0  0  0
   -8.0201   -1.4631   -2.3035 H   0  0  0  0  0  0  0  0  0  0  0  0
   -9.0080   -0.4905   -0.2913 H   0  0  0  0  0  0  0  0  0  0  0  0
  1  2  4  0
  2  3  4  0
  3  4  4  0
  4  5  4  0
  5  6  4  0
  5  7  4  0
  7  8  4  0
  8  9  1  0
  9 10  4  0
 10 11  4  0
 11 12  4  0
 12 13  4  0
 13 14  4  0
 14 15  4  0
 15 16  4  0
 16 17  4  0
 17 18  4  0
 18 19  4  0
 19 20  4  0
 20 21  1  0
 21 22  4  0
 22 23  4  0
 23 24  4  0
 24 25  4  0
 25 26  4  0
 26 27  4  0
 27 28  4  0
 28 29  4  0
 29 30  4  0
 30 31  4  0
 31 32  4  0
 32 33  4  0
 33 34  4  0
 30 35  4  0
 35 36  4  0
 20 37  4  0
 37 38  4  0
 38 39  4  0
 39 40  4  0
 40 41  4  0
 41 42  4  0
 42 43  4  0
 43 44  4  0
 44 45  4  0
 45 46  4  0
  8 47  4  0
 47 48  4  0
 48 49  4  0
 49 50  4  0
 50 51  4  0
 51 52  4  0
 51 53  4  0
 53 54  4  0
  6  1  4  0
 46  9  4  0
 52 47  4  0
 54  3  4  0
 52  4  4  0
 19 10  4  0
 34 21  4  0
 46 37  4  0
 17 12  4  0
 28 23  4  0
 34 29  4  0
 44 39  4  0
 36 27  4  0
  1 55  1  0
  2 56  1  0
  6 57  1  0
  7 58  1  0
 11 59  1  0
 13 60  1  0
 14 61  1  0
 15 62  1  0
 16 63  1  0
 18 64  1  0
 22 65  1  0
 24 66  1  0
 25 67  1  0
 26 68  1  0
 31 69  1  0
 32 70  1  0
 33 71  1  0
 35 72  1  0
 36 73  1  0
 38 74  1  0
 40 75  1  0
 41 76  1  0
 42 77  1  0
 43 78  1  0
 45 79  1  0
 48 80  1  0
 49 81  1  0
 50 82  1  0
 53 83  1  0
 54 84  1  0
M  END
