
     RDKit          3D

116132  0  0  0  0  0  0  0  0999 V2000
  -17.4117   -0.5603    0.6705 C   0  0  0  0  0  0  0  0  0  0  0  0
  -17.1207   -1.6693    1.4586 C   0  0  0  0  0  0  0  0  0  0  0  0
  -15.7923   -2.0220    1.7019 C   0  0  0  0  0  0  0  0  0  0  0  0
  -14.7375   -1.2690    1.1595 C   0  0  0  0  0  0  0  0  0  0  0  0
  -13.3953   -1.6107    1.3949 C   0  0  0  0  0  0  0  0  0  0  0  0
  -12.3407   -0.8570    0.8521 C   0  0  0  0  0  0  0  0  0  0  0  0
  -10.9980   -1.1984    1.0875 C   0  0  0  0  0  0  0  0  0  0  0  0
   -9.9430   -0.4452    0.5451 C   0  0  0  0  0  0  0  0  0  0  0  0
   -8.6006   -0.7868    0.7809 C   0  0  0  0  0  0  0  0  0  0  0  0
   -7.5456   -0.0340    0.2383 C   0  0  0  0  0  0  0  0  0  0  0  0
   -6.2034   -0.3771    0.4740 C   0  0  0  0  0  0  0  0  0  0  0  0
   -5.1487    0.3726   -0.0722 C   0  0  0  0  0  0  0  0  0  0  0  0
   -3.8065    0.0251    0.1583 C   0  0  0  0  0  0  0  0  0  0  0  0
   -2.7533    0.7729   -0.3936 C   0  0  0  0  0  0  0  0  0  0  0  0
   -1.3424    0.3863   -0.1517 C   0  0  0  0  0  0  0  0  0  0  0  0
   -0.6364    0.9489    0.9567 C   0  0  0  0  0  0  0  0  0  0  0  0
   -1.2386    1.8700    1.8569 C   0  0  0  0  0  0  0  0  0  0  0  0
   -0.5598    2.4371    2.9471 C   0  0  0  0  0  0  0  0  0  0  0  0
   -1.1824    3.3477    3.8190 C   0  0  0  0  0  0  0  0  0  0  0  0
   -0.4837    3.8992    4.8939 C   0  0  0  0  0  0  0  0  0  0  0  0
    0.8448    3.5472    5.1096 C   0  0  0  0  0  0  0  0  0  0  0  0
    1.4719    2.6432    4.2511 C   0  0  0  0  0  0  0  0  0  0  0  0
    0.7771    2.0814    3.1657 C   0  0  0  0  0  0  0  0  0  0  0  0
    1.3845    1.1696    2.2881 C   0  0  0  0  0  0  0  0  0  0  0  0
    0.7110    0.5868    1.1800 C   0  0  0  0  0  0  0  0  0  0  0  0
    1.3472   -0.3402    0.2971 C   0  0  0  0  0  0  0  0  0  0  0  0
    2.7602   -0.7228    0.5325 C   0  0  0  0  0  0  0  0  0  0  0  0
    3.8070    0.0129   -0.0474 C   0  0  0  0  0  0  0  0  0  0  0  0
    5.1513   -0.3397    0.1615 C   0  0  0  0  0  0  0  0  0  0  0  0
    6.1990    0.3948   -0.4178 C   0  0  0  0  0  0  0  0  0  0  0  0
    7.5432    0.0419   -0.2114 C   0  0  0  0  0  0  0  0  0  0  0  0
    8.5910    0.7767   -0.7915 C   0  0  0  0  0  0  0  0  0  0  0  0
    9.9357    0.4246   -0.5862 C   0  0  0  0  0  0  0  0  0  0  0  0
   10.9834    1.1597   -1.1665 C   0  0  0  0  0  0  0  0  0  0  0  0
   12.3283    0.8080   -0.9616 C   0  0  0  0  0  0  0  0  0  0  0  0
   13.3755    1.5437   -1.5425 C   0  0  0  0  0  0  0  0  0  0  0  0
   14.7200    1.1919   -1.3374 C   0  0  0  0  0  0  0  0  0  0  0  0
   15.7674    1.9267   -1.9176 C   0  0  0  0  0  0  0  0  0  0  0  0
   17.0981    1.5640   -1.7039 C   0  0  0  0  0  0  0  0  0  0  0  0
   17.3987    0.4630   -0.9080 C   0  0  0  0  0  0  0  0  0  0  0  0
   16.3691   -0.2769   -0.3246 C   0  0  0  0  0  0  0  0  0  0  0  0
   15.0249    0.0755   -0.5303 C   0  0  0  0  0  0  0  0  0  0  0  0
   13.9775   -0.6591    0.0498 C   0  0  0  0  0  0  0  0  0  0  0  0
   12.6328   -0.3064   -0.1561 C   0  0  0  0  0  0  0  0  0  0  0  0
   11.5849   -1.0413    0.4243 C   0  0  0  0  0  0  0  0  0  0  0  0
   10.2401   -0.6895    0.2191 C   0  0  0  0  0  0  0  0  0  0  0  0
    9.1922   -1.4245    0.7994 C   0  0  0  0  0  0  0  0  0  0  0  0
    7.8474   -1.0726    0.5942 C   0  0  0  0  0  0  0  0  0  0  0  0
    6.7996   -1.8075    1.1748 C   0  0  0  0  0  0  0  0  0  0  0  0
    5.4557   -1.4549    0.9691 C   0  0  0  0  0  0  0  0  0  0  0  0
    4.4099   -2.1888    1.5497 C   0  0  0  0  0  0  0  0  0  0  0  0
    3.0782   -1.8268    1.3343 C   0  0  0  0  0  0  0  0  0  0  0  0
    0.6408   -0.9039   -0.8105 C   0  0  0  0  0  0  0  0  0  0  0  0
    1.2429   -1.8258   -1.7102 C   0  0  0  0  0  0  0  0  0  0  0  0
    0.5658   -2.3900   -2.8028 C   0  0  0  0  0  0  0  0  0  0  0  0
    1.1895   -3.2994   -3.6751 C   0  0  0  0  0  0  0  0  0  0  0  0
    0.4927   -3.8468   -4.7532 C   0  0  0  0  0  0  0  0  0  0  0  0
   -0.8344   -3.4918   -4.9719 C   0  0  0  0  0  0  0  0  0  0  0  0
   -1.4627   -2.5896   -4.1124 C   0  0  0  0  0  0  0  0  0  0  0  0
   -0.7699   -2.0317   -3.0236 C   0  0  0  0  0  0  0  0  0  0  0  0
   -1.3780   -1.1211   -2.1452 C   0  0  0  0  0  0  0  0  0  0  0  0
   -0.7060   -0.5408   -1.0347 C   0  0  0  0  0  0  0  0  0  0  0  0
   -3.0625    1.8879   -1.1835 C   0  0  0  0  0  0  0  0  0  0  0  0
   -4.3919    2.2456   -1.4193 C   0  0  0  0  0  0  0  0  0  0  0  0
   -5.4442    1.4962   -0.8718 C   0  0  0  0  0  0  0  0  0  0  0  0
   -6.7859    1.8402   -1.1047 C   0  0  0  0  0  0  0  0  0  0  0  0
   -7.8405    1.0880   -0.5602 C   0  0  0  0  0  0  0  0  0  0  0  0
   -9.1830    1.4298   -0.7955 C   0  0  0  0  0  0  0  0  0  0  0  0
  -10.2378    0.6769   -0.2526 C   0  0  0  0  0  0  0  0  0  0  0  0
  -11.5803    1.0186   -0.4881 C   0  0  0  0  0  0  0  0  0  0  0  0
  -12.6354    0.2656    0.0543 C   0  0  0  0  0  0  0  0  0  0  0  0
  -13.9777    0.6083   -0.1819 C   0  0  0  0  0  0  0  0  0  0  0  0
  -15.0327   -0.1443    0.3603 C   0  0  0  0  0  0  0  0  0  0  0  0
  -16.3747    0.1978    0.1245 C   0  0  0  0  0  0  0  0  0  0  0  0
  -18.4453   -0.2838    0.4796 H   0  0  0  0  0  0  0  0  0  0  0  0
  -17.9265   -2.2612    1.8848 H   0  0  0  0  0  0  0  0  0  0  0  0
  -15.5852   -2.8923    2.3205 H   0  0  0  0  0  0  0  0  0  0  0  0
  -13.1682   -2.4784    2.0116 H   0  0  0  0  0  0  0  0  0  0  0  0
  -10.7704   -2.0663    1.7040 H   0  0  0  0  0  0  0  0  0  0  0  0
   -8.3730   -1.6545    1.3978 H   0  0  0  0  0  0  0  0  0  0  0  0
   -5.9757   -1.2445    1.0914 H   0  0  0  0  0  0  0  0  0  0  0  0
   -3.5696   -0.8431    0.7721 H   0  0  0  0  0  0  0  0  0  0  0  0
   -2.2776    2.1632    1.7099 H   0  0  0  0  0  0  0  0  0  0  0  0
   -2.2205    3.6339    3.6636 H   0  0  0  0  0  0  0  0  0  0  0  0
   -0.9770    4.6026    5.5596 H   0  0  0  0  0  0  0  0  0  0  0  0
    1.3943    3.9749    5.9437 H   0  0  0  0  0  0  0  0  0  0  0  0
    2.5113    2.3788    4.4337 H   0  0  0  0  0  0  0  0  0  0  0  0
    2.4244    0.9090    2.4819 H   0  0  0  0  0  0  0  0  0  0  0  0
    3.5635    0.8720   -0.6713 H   0  0  0  0  0  0  0  0  0  0  0  0
    5.9634    1.2570   -1.0396 H   0  0  0  0  0  0  0  0  0  0  0  0
    8.3561    1.6383   -1.4142 H   0  0  0  0  0  0  0  0  0  0  0  0
   10.7484    2.0213   -1.7890 H   0  0  0  0  0  0  0  0  0  0  0  0
   13.1407    2.4050   -2.1651 H   0  0  0  0  0  0  0  0  0  0  0  0
   15.5527    2.7905   -2.5429 H   0  0  0  0  0  0  0  0  0  0  0  0
   17.8983    2.1416   -2.1591 H   0  0  0  0  0  0  0  0  0  0  0  0
   18.4342    0.1788   -0.7402 H   0  0  0  0  0  0  0  0  0  0  0  0
   16.6240   -1.1342    0.2943 H   0  0  0  0  0  0  0  0  0  0  0  0
   14.2136   -1.5203    0.6723 H   0  0  0  0  0  0  0  0  0  0  0  0
   11.8218   -1.9022    1.0471 H   0  0  0  0  0  0  0  0  0  0  0  0
    9.4281   -2.2858    1.4220 H   0  0  0  0  0  0  0  0  0  0  0  0
    7.0338   -2.6691    1.7974 H   0  0  0  0  0  0  0  0  0  0  0  0
    4.6234   -3.0520    2.1764 H   0  0  0  0  0  0  0  0  0  0  0  0
    2.2846   -2.4124    1.7946 H   0  0  0  0  0  0  0  0  0  0  0  0
    2.2810   -2.1214   -1.5615 H   0  0  0  0  0  0  0  0  0  0  0  0
    2.2267   -3.5875   -3.5177 H   0  0  0  0  0  0  0  0  0  0  0  0
    0.9868   -4.5490   -5.4192 H   0  0  0  0  0  0  0  0  0  0  0  0
   -1.3816   -3.9158   -5.8096 H   0  0  0  0  0  0  0  0  0  0  0  0
   -2.5012   -2.3226   -4.2963 H   0  0  0  0  0  0  0  0  0  0  0  0
   -2.4173   -0.8589   -2.3411 H   0  0  0  0  0  0  0  0  0  0  0  0
   -2.2635    2.4836   -1.6211 H   0  0  0  0  0  0  0  0  0  0  0  0
   -4.5980    3.1163   -2.0380 H   0  0  0  0  0  0  0  0  0  0  0  0
   -7.0131    2.7072   -1.7225 H   0  0  0  0  0  0  0  0  0  0  0  0
   -9.4113    2.2971   -1.4127 H   0  0  0  0  0  0  0  0  0  0  0  0
  -11.8088    1.8862   -1.1047 H   0  0  0  0  0  0  0  0  0  0  0  0
  -14.2056    1.4759   -0.7984 H   0  0  0  0  0  0  0  0  0  0  0  0
  -16.6224    1.0612   -0.4889 H   0  0  0  0  0  0  0  0  0  0  0  0
  1  2  4  0
  2  3  4  0
  3  4  4  0
  4  5  4  0
  5  6  4  0
  6  7  4  0
  7  8  4  0
  8  9  4  0
  9 10  4  0
 10 11  4  0
 11 12  4  0
 12 13  4  0
 13 14  4  0
 14 15  1  0
 15 16  4  0
 16 17  4  0
 17 18  4  0
 18 19  4  0
 19 20  4  0
 20 21  4  0
 21 22  4  0
 22 23  4  0
 23 24  4  0
 24 25  4  0
 25 26  4  0
 26 27  1  0
 27 28  4  0
 28 29  4  0
 29 30  4  0
 30 31  4  0
 31 32  4  0
 32 33  4  0
 33 34  4  0
 34 35  4  0
 35 36  4  0
 36 37  4  0
 37 38  4  0
 38 39  4  0
 39 40  4  0
 40 41  4  0
 41 42  4  0
 42 43  4  0
 43 44  4  0
 44 45  4  0
 45 46  4  0
 46 47  4  0
 47 48  4  0
 48 49  4  0
 49 50  4  0
 50 51  4  0
 51 52  4  0
 26 53  4  0
 53 54  4  0
 54 55  4  0
 55 56  4  0
 56 57  4  0
 57 58  4  0
 58 59  4  0
 59 60  4  0
 60 61  4  0
 61 62  4  0
 14 63  4  0
 63 64  4  0
 64 65  4  0
 65 66  4  0
 66 67  4  0
 67 68  4  0
 68 69  4  0
 69 70  4  0
 70 71  4  0
 71 72  4  0
 72 73  4  0
 73 74  4  0
 74  1  4  0
 73  4  4  0
 71  6  4  0
 69  8  4  0
 67 10  4  0
 65 12  4  0
 62 15  4  0
 25 16  4  0
 52 27  4  0
 62 53  4  0
 23 18  4  0
 50 29  4  0
 60 55  4  0
 48 31  4  0
 46 33  4  0
 44 35  4  0
 42 37  4  0
  1 75  1  0
  2 76  1  0
  3 77  1  0
  5 78  1  0
  7 79  1  0
  9 80  1  0
 11 81  1  0
 13 82  1  0
 17 83  1  0
 19 84  1  0
 20 85  1  0
 21 86  1  0
 22 87  1  0
 24 88  1  0
 28 89  1  0
 30 90  1  0
 32 91  1  0
 34 92  1  0
 36 93  1  0
 38 94  1  0
 39 95  1  0
 40 96  1  0
 41 97  1  0
 43 98  1  0
 45 99  1  0
 47100  1  0
 49101  1  0
 51102  1  0
 52103  1  0
 54104  1  0
 56105  1  0
 57106  1  0
 58107  1  0
 59108  1  0
 61109  1  0
 63110  1  0
 64111  1  0
 66112  1  0
 68113  1  0
 70114  1  0
 72115  1  0
 74116  1  0
M  END
