
     RDKit          3D

116132  0  0  0  0  0  0  0  0999 V2000
    5.4157   -5.8673   -1.6976 C   0  0  0  0  0  0  0  0  0  0  0  0
    4.0343   -5.9674   -1.7660 C   0  0  0  0  0  0  0  0  0  0  0  0
    3.2408   -4.8700   -1.4244 C   0  0  0  0  0  0  0  0  0  0  0  0
    3.8026   -3.6378   -1.0068 C   0  0  0  0  0  0  0  0  0  0  0  0
    5.2114   -3.5586   -0.9427 C   0  0  0  0  0  0  0  0  0  0  0  0
    5.9996   -4.6707   -1.2876 C   0  0  0  0  0  0  0  0  0  0  0  0
    5.8236   -2.3666   -0.5357 C   0  0  0  0  0  0  0  0  0  0  0  0
    5.0804   -1.2311   -0.1885 C   0  0  0  0  0  0  0  0  0  0  0  0
    5.7387   -0.0545    0.2130 C   0  0  0  0  0  0  0  0  0  0  0  0
    5.0313    1.1049    0.5658 C   0  0  0  0  0  0  0  0  0  0  0  0
    5.6891    2.2812    0.9656 C   0  0  0  0  0  0  0  0  0  0  0  0
    4.9733    3.4383    1.3174 C   0  0  0  0  0  0  0  0  0  0  0  0
    5.6297    4.6154    1.7165 C   0  0  0  0  0  0  0  0  0  0  0  0
    4.9122    5.7705    2.0693 C   0  0  0  0  0  0  0  0  0  0  0  0
    5.5668    6.9477    2.4684 C   0  0  0  0  0  0  0  0  0  0  0  0
    4.8390    8.0866    2.8165 C   0  0  0  0  0  0  0  0  0  0  0  0
    3.4485    8.0636    2.7704 C   0  0  0  0  0  0  0  0  0  0  0  0
    2.7837    6.9018    2.3758 C   0  0  0  0  0  0  0  0  0  0  0  0
    3.5021    5.7477    2.0221 C   0  0  0  0  0  0  0  0  0  0  0  0
    2.8474    4.5713    1.6224 C   0  0  0  0  0  0  0  0  0  0  0  0
    3.5658    3.4168    1.2690 C   0  0  0  0  0  0  0  0  0  0  0  0
    2.9108    2.2406    0.8681 C   0  0  0  0  0  0  0  0  0  0  0  0
    3.6291    1.0855    0.5160 C   0  0  0  0  0  0  0  0  0  0  0  0
    2.9755   -0.0919    0.1144 C   0  0  0  0  0  0  0  0  0  0  0  0
    3.6727   -1.2725   -0.2449 C   0  0  0  0  0  0  0  0  0  0  0  0
    3.0274   -2.4853   -0.6556 C   0  0  0  0  0  0  0  0  0  0  0  0
    1.5307   -2.5433   -0.7224 C   0  0  0  0  0  0  0  0  0  0  0  0
    0.8686   -2.2247   -1.9500 C   0  0  0  0  0  0  0  0  0  0  0  0
    1.5770   -1.8641   -3.1279 C   0  0  0  0  0  0  0  0  0  0  0  0
    0.9438   -1.5539   -4.3414 C   0  0  0  0  0  0  0  0  0  0  0  0
    1.6727   -1.2029   -5.4909 C   0  0  0  0  0  0  0  0  0  0  0  0
    1.0190   -0.9006   -6.6862 C   0  0  0  0  0  0  0  0  0  0  0  0
   -0.3700   -0.9448   -6.7460 C   0  0  0  0  0  0  0  0  0  0  0  0
   -1.1034   -1.2913   -5.6104 C   0  0  0  0  0  0  0  0  0  0  0  0
   -0.4546   -1.5984   -4.4017 C   0  0  0  0  0  0  0  0  0  0  0  0
   -1.1682   -1.9499   -3.2458 C   0  0  0  0  0  0  0  0  0  0  0  0
   -0.5417   -2.2649   -2.0099 C   0  0  0  0  0  0  0  0  0  0  0  0
   -1.2862   -2.6144   -0.8402 C   0  0  0  0  0  0  0  0  0  0  0  0
   -2.7837   -2.6489   -0.9021 C   0  0  0  0  0  0  0  0  0  0  0  0
   -3.5367   -1.4627   -0.6144 C   0  0  0  0  0  0  0  0  0  0  0  0
   -2.9513   -0.2190   -0.2650 C   0  0  0  0  0  0  0  0  0  0  0  0
   -3.7134    0.9309    0.0089 C   0  0  0  0  0  0  0  0  0  0  0  0
   -3.1086    2.1533    0.3499 C   0  0  0  0  0  0  0  0  0  0  0  0
   -3.8741    3.3005    0.6213 C   0  0  0  0  0  0  0  0  0  0  0  0
   -3.2707    4.5237    0.9606 C   0  0  0  0  0  0  0  0  0  0  0  0
   -4.0376    5.6697    1.2308 C   0  0  0  0  0  0  0  0  0  0  0  0
   -3.4357    6.8933    1.5690 C   0  0  0  0  0  0  0  0  0  0  0  0
   -4.2120    8.0226    1.8341 C   0  0  0  0  0  0  0  0  0  0  0  0
   -5.5993    7.9438    1.7648 C   0  0  0  0  0  0  0  0  0  0  0  0
   -6.2123    6.7353    1.4303 C   0  0  0  0  0  0  0  0  0  0  0  0
   -5.4446    5.5901    1.1606 C   0  0  0  0  0  0  0  0  0  0  0  0
   -6.0467    4.3671    0.8220 C   0  0  0  0  0  0  0  0  0  0  0  0
   -5.2785    3.2219    0.5510 C   0  0  0  0  0  0  0  0  0  0  0  0
   -5.8810    1.9992    0.2106 C   0  0  0  0  0  0  0  0  0  0  0  0
   -5.1129    0.8539   -0.0617 C   0  0  0  0  0  0  0  0  0  0  0  0
   -5.7096   -0.3687   -0.4040 C   0  0  0  0  0  0  0  0  0  0  0  0
   -4.9440   -1.5159   -0.6789 C   0  0  0  0  0  0  0  0  0  0  0  0
   -5.5811   -2.7160   -1.0192 C   0  0  0  0  0  0  0  0  0  0  0  0
   -4.8623   -3.8834   -1.3040 C   0  0  0  0  0  0  0  0  0  0  0  0
   -5.5457   -5.0648   -1.6422 C   0  0  0  0  0  0  0  0  0  0  0  0
   -4.8539   -6.2392   -1.9305 C   0  0  0  0  0  0  0  0  0  0  0  0
   -3.4680   -6.2466   -1.8845 C   0  0  0  0  0  0  0  0  0  0  0  0
   -2.7784   -5.0792   -1.5499 C   0  0  0  0  0  0  0  0  0  0  0  0
   -3.4513   -3.8683   -1.2505 C   0  0  0  0  0  0  0  0  0  0  0  0
   -0.6243   -2.9319    0.3873 C   0  0  0  0  0  0  0  0  0  0  0  0
   -1.3347   -3.2793    1.5675 C   0  0  0  0  0  0  0  0  0  0  0  0
   -0.7035   -3.5936    2.7808 C   0  0  0  0  0  0  0  0  0  0  0  0
   -1.4361   -3.9283    3.9328 C   0  0  0  0  0  0  0  0  0  0  0  0
   -0.7852   -4.2364    5.1282 C   0  0  0  0  0  0  0  0  0  0  0  0
    0.6046   -4.2153    5.1858 C   0  0  0  0  0  0  0  0  0  0  0  0
    1.3413   -3.8849    4.0472 C   0  0  0  0  0  0  0  0  0  0  0  0
    0.6956   -3.5705    2.8379 C   0  0  0  0  0  0  0  0  0  0  0  0
    1.4115   -3.2301    1.6791 C   0  0  0  0  0  0  0  0  0  0  0  0
    0.7864   -2.9023    0.4453 C   0  0  0  0  0  0  0  0  0  0  0  0
    6.0397   -6.7167   -1.9623 H   0  0  0  0  0  0  0  0  0  0  0  0
    3.5669   -6.8956   -2.0842 H   0  0  0  0  0  0  0  0  0  0  0  0
    2.1610   -4.9905   -1.4913 H   0  0  0  0  0  0  0  0  0  0  0  0
    7.0853   -4.6124   -1.2399 H   0  0  0  0  0  0  0  0  0  0  0  0
    6.9112   -2.3213   -0.4893 H   0  0  0  0  0  0  0  0  0  0  0  0
    6.8271   -0.0391    0.2512 H   0  0  0  0  0  0  0  0  0  0  0  0
    6.7770    2.2966    1.0034 H   0  0  0  0  0  0  0  0  0  0  0  0
    6.7174    4.6334    1.7540 H   0  0  0  0  0  0  0  0  0  0  0  0
    6.6530    6.9856    2.5110 H   0  0  0  0  0  0  0  0  0  0  0  0
    5.3587    8.9904    3.1235 H   0  0  0  0  0  0  0  0  0  0  0  0
    2.8799    8.9493    3.0414 H   0  0  0  0  0  0  0  0  0  0  0  0
    1.6964    6.9027    2.3463 H   0  0  0  0  0  0  0  0  0  0  0  0
    1.7599    4.5543    1.5863 H   0  0  0  0  0  0  0  0  0  0  0  0
    1.8227    2.2218    0.8290 H   0  0  0  0  0  0  0  0  0  0  0  0
    1.8870   -0.0837    0.0822 H   0  0  0  0  0  0  0  0  0  0  0  0
    2.6656   -1.8221   -3.1093 H   0  0  0  0  0  0  0  0  0  0  0  0
    2.7594   -1.1638   -5.4602 H   0  0  0  0  0  0  0  0  0  0  0  0
    1.5948   -0.6311   -7.5676 H   0  0  0  0  0  0  0  0  0  0  0  0
   -0.8839   -0.7102   -7.6744 H   0  0  0  0  0  0  0  0  0  0  0  0
   -2.1890   -1.3209   -5.6737 H   0  0  0  0  0  0  0  0  0  0  0  0
   -2.2548   -1.9772   -3.3207 H   0  0  0  0  0  0  0  0  0  0  0  0
   -1.8668   -0.1371   -0.2042 H   0  0  0  0  0  0  0  0  0  0  0  0
   -2.0227    2.2118    0.4038 H   0  0  0  0  0  0  0  0  0  0  0  0
   -2.1856    4.5856    1.0146 H   0  0  0  0  0  0  0  0  0  0  0  0
   -2.3529    6.9762    1.6287 H   0  0  0  0  0  0  0  0  0  0  0  0
   -3.7321    8.9624    2.0943 H   0  0  0  0  0  0  0  0  0  0  0  0
   -6.2056    8.8221    1.9705 H   0  0  0  0  0  0  0  0  0  0  0  0
   -7.2981    6.6937    1.3811 H   0  0  0  0  0  0  0  0  0  0  0  0
   -7.1322    4.3061    0.7679 H   0  0  0  0  0  0  0  0  0  0  0  0
   -6.9665    1.9380    0.1564 H   0  0  0  0  0  0  0  0  0  0  0  0
   -6.7957   -0.4275   -0.4587 H   0  0  0  0  0  0  0  0  0  0  0  0
   -6.6695   -2.7431   -1.0641 H   0  0  0  0  0  0  0  0  0  0  0  0
   -6.6331   -5.0794   -1.6835 H   0  0  0  0  0  0  0  0  0  0  0  0
   -5.3976   -7.1438   -2.1893 H   0  0  0  0  0  0  0  0  0  0  0  0
   -2.9166   -7.1563   -2.1073 H   0  0  0  0  0  0  0  0  0  0  0  0
   -1.6913   -5.1280   -1.5253 H   0  0  0  0  0  0  0  0  0  0  0  0
   -2.4236   -3.3082    1.5507 H   0  0  0  0  0  0  0  0  0  0  0  0
   -2.5233   -3.9493    3.9047 H   0  0  0  0  0  0  0  0  0  0  0  0
   -1.3655   -4.4901    6.0112 H   0  0  0  0  0  0  0  0  0  0  0  0
    1.1161   -4.4546    6.1144 H   0  0  0  0  0  0  0  0  0  0  0  0
    2.4274   -3.8724    4.1074 H   0  0  0  0  0  0  0  0  0  0  0  0
    2.4986   -3.2201    1.7501 H   0  0  0  0  0  0  0  0  0  0  0  0
  1  2  4  0
  2  3  4  0
  3  4  4  0
  4  5  4  0
  5  6  4  0
  5  7  4  0
  7  8  4  0
  8  9  4  0
  9 10  4  0
 10 11  4  0
 11 12  4  0
 12 13  4  0
 13 14  4  0
 14 15  4  0
 15 16  4  0
 16 17  4  0
 17 18  4  0
 18 19  4  0
 19 20  4  0
 20 21  4  0
 21 22  4  0
 22 23  4  0
 23 24  4  0
 24 25  4  0
 25 26  4  0
 26 27  1  0
 27 28  4  0
 28 29  4  0
 29 30  4  0
 30 31  4  0
 31 32  4  0
 32 33  4  0
 33 34  4  0
 34 35  4  0
 35 36  4  0
 36 37  4  0
 37 38  4  0
 38 39  1  0
 39 40  4  0
 40 41  4  0
 41 42  4  0
 42 43  4  0
 43 44  4  0
 44 45  4  0
 45 46  4  0
 46 47  4  0
 47 48  4  0
 48 49  4  0
 49 50  4  0
 50 51  4  0
 51 52  4  0
 52 53  4  0
 53 54  4  0
 54 55  4  0
 55 56  4  0
 56 57  4  0
 57 58  4  0
 58 59  4  0
 59 60  4  0
 60 61  4  0
 61 62  4  0
 62 63  4  0
 63 64  4  0
 38 65  4  0
 65 66  4  0
 66 67  4  0
 67 68  4  0
 68 69  4  0
 69 70  4  0
 70 71  4  0
 71 72  4  0
 72 73  4  0
 73 74  4  0
  6  1  4  0
 25  8  4  0
 74 27  4  0
 26  4  4  0
 37 28  4  0
 64 39  4  0
 74 65  4  0
 23 10  4  0
 35 30  4  0
 57 40  4  0
 64 59  4  0
 72 67  4  0
 21 12  4  0
 55 42  4  0
 19 14  4  0
 53 44  4  0
 51 46  4  0
  1 75  1  0
  2 76  1  0
  3 77  1  0
  6 78  1  0
  7 79  1  0
  9 80  1  0
 11 81  1  0
 13 82  1  0
 15 83  1  0
 16 84  1  0
 17 85  1  0
 18 86  1  0
 20 87  1  0
 22 88  1  0
 24 89  1  0
 29 90  1  0
 31 91  1  0
 32 92  1  0
 33 93  1  0
 34 94  1  0
 36 95  1  0
 41 96  1  0
 43 97  1  0
 45 98  1  0
 47 99  1  0
 48100  1  0
 49101  1  0
 50102  1  0
 52103  1  0
 54104  1  0
 56105  1  0
 58106  1  0
 60107  1  0
 61108  1  0
 62109  1  0
 63110  1  0
 66111  1  0
 68112  1  0
 69113  1  0
 70114  1  0
 71115  1  0
 73116  1  0
M  END
