
     RDKit          3D

 92104  0  0  0  0  0  0  0  0999 V2000
   -6.1938   -4.6158    0.9778 C   0  0  0  0  0  0  0  0  0  0  0  0
   -4.8505   -4.9382    1.1434 C   0  0  0  0  0  0  0  0  0  0  0  0
   -3.8660   -4.0134    0.7950 C   0  0  0  0  0  0  0  0  0  0  0  0
   -4.2149   -2.7529    0.2821 C   0  0  0  0  0  0  0  0  0  0  0  0
   -3.2390   -1.7970   -0.0529 C   0  0  0  0  0  0  0  0  0  0  0  0
   -3.5443   -0.4842   -0.4948 C   0  0  0  0  0  0  0  0  0  0  0  0
   -4.9020   -0.2600   -0.8135 C   0  0  0  0  0  0  0  0  0  0  0  0
   -5.8958   -1.1898   -0.4556 C   0  0  0  0  0  0  0  0  0  0  0  0
   -5.5695   -2.4300    0.1078 C   0  0  0  0  0  0  0  0  0  0  0  0
   -6.5526   -3.3705    0.4595 C   0  0  0  0  0  0  0  0  0  0  0  0
   -5.2559    0.8566   -1.5645 C   0  0  0  0  0  0  0  0  0  0  0  0
   -4.2637    1.5967   -2.1994 C   0  0  0  0  0  0  0  0  0  0  0  0
   -4.6213    2.5005   -3.2164 C   0  0  0  0  0  0  0  0  0  0  0  0
   -3.6510    3.1231   -3.9957 C   0  0  0  0  0  0  0  0  0  0  0  0
   -2.3161    2.8245   -3.7825 C   0  0  0  0  0  0  0  0  0  0  0  0
   -1.9582    1.9567   -2.7466 C   0  0  0  0  0  0  0  0  0  0  0  0
   -2.9074    1.3799   -1.8609 C   0  0  0  0  0  0  0  0  0  0  0  0
   -2.5886    0.5621   -0.7222 C   0  0  0  0  0  0  0  0  0  0  0  0
   -1.2887    0.7738    0.1267 C   0  0  0  0  0  0  0  0  0  0  0  0
   -0.8557   -0.0915    1.1704 C   0  0  0  0  0  0  0  0  0  0  0  0
   -1.7293   -0.7010    2.1068 C   0  0  0  0  0  0  0  0  0  0  0  0
   -1.3169   -1.6831    3.0219 C   0  0  0  0  0  0  0  0  0  0  0  0
   -2.2260   -2.3276    3.8780 C   0  0  0  0  0  0  0  0  0  0  0  0
   -1.7970   -3.3278    4.7509 C   0  0  0  0  0  0  0  0  0  0  0  0
   -0.4544   -3.6914    4.7809 C   0  0  0  0  0  0  0  0  0  0  0  0
    0.4587   -3.0503    3.9424 C   0  0  0  0  0  0  0  0  0  0  0  0
    0.0363   -2.0427    3.0580 C   0  0  0  0  0  0  0  0  0  0  0  0
    0.9359   -1.3510    2.2339 C   0  0  0  0  0  0  0  0  0  0  0  0
    0.5262   -0.3157    1.3529 C   0  0  0  0  0  0  0  0  0  0  0  0
    1.4510    0.5381    0.6971 C   0  0  0  0  0  0  0  0  0  0  0  0
    2.9168    0.2519    0.7397 C   0  0  0  0  0  0  0  0  0  0  0  0
    3.7202    0.7227    1.8294 C   0  0  0  0  0  0  0  0  0  0  0  0
    3.2135    1.4729    2.9207 C   0  0  0  0  0  0  0  0  0  0  0  0
    4.0333    1.9113    3.9631 C   0  0  0  0  0  0  0  0  0  0  0  0
    5.3875    1.6132    3.9464 C   0  0  0  0  0  0  0  0  0  0  0  0
    5.9171    0.8779    2.8880 C   0  0  0  0  0  0  0  0  0  0  0  0
    5.1020    0.4309    1.8330 C   0  0  0  0  0  0  0  0  0  0  0  0
    5.6605   -0.3063    0.7809 C   0  0  0  0  0  0  0  0  0  0  0  0
    4.8896   -0.7725   -0.2919 C   0  0  0  0  0  0  0  0  0  0  0  0
    5.4945   -1.5075   -1.3285 C   0  0  0  0  0  0  0  0  0  0  0  0
    4.7565   -1.9900   -2.4202 C   0  0  0  0  0  0  0  0  0  0  0  0
    5.3604   -2.7213   -3.4575 C   0  0  0  0  0  0  0  0  0  0  0  0
    4.6053   -3.1898   -4.5344 C   0  0  0  0  0  0  0  0  0  0  0  0
    3.2382   -2.9352   -4.5868 C   0  0  0  0  0  0  0  0  0  0  0  0
    2.6259   -2.2112   -3.5629 C   0  0  0  0  0  0  0  0  0  0  0  0
    3.3751   -1.7323   -2.4747 C   0  0  0  0  0  0  0  0  0  0  0  0
    2.7762   -0.9992   -1.4365 C   0  0  0  0  0  0  0  0  0  0  0  0
    3.5067   -0.5012   -0.3277 C   0  0  0  0  0  0  0  0  0  0  0  0
    0.9640    1.7383    0.1164 C   0  0  0  0  0  0  0  0  0  0  0  0
    1.8190    2.8065   -0.2634 C   0  0  0  0  0  0  0  0  0  0  0  0
    1.3337    4.0618   -0.6597 C   0  0  0  0  0  0  0  0  0  0  0  0
    2.1953    5.1170   -1.0055 C   0  0  0  0  0  0  0  0  0  0  0  0
    1.6855    6.3668   -1.3604 C   0  0  0  0  0  0  0  0  0  0  0  0
    0.3102    6.5775   -1.3698 C   0  0  0  0  0  0  0  0  0  0  0  0
   -0.5544    5.5369   -1.0287 C   0  0  0  0  0  0  0  0  0  0  0  0
   -0.0516    4.2730   -0.6756 C   0  0  0  0  0  0  0  0  0  0  0  0
   -0.9004    3.2019   -0.3554 C   0  0  0  0  0  0  0  0  0  0  0  0
   -0.4292    1.8967   -0.0523 C   0  0  0  0  0  0  0  0  0  0  0  0
   -6.9629   -5.3351    1.2465 H   0  0  0  0  0  0  0  0  0  0  0  0
   -4.5666   -5.9075    1.5443 H   0  0  0  0  0  0  0  0  0  0  0  0
   -2.8196   -4.2763    0.9400 H   0  0  0  0  0  0  0  0  0  0  0  0
   -2.1943   -2.0979    0.0181 H   0  0  0  0  0  0  0  0  0  0  0  0
   -6.9404   -0.9671   -0.6677 H   0  0  0  0  0  0  0  0  0  0  0  0
   -7.6072   -3.1404    0.3257 H   0  0  0  0  0  0  0  0  0  0  0  0
   -6.3011    1.0318   -1.8124 H   0  0  0  0  0  0  0  0  0  0  0  0
   -5.6688    2.6895   -3.4435 H   0  0  0  0  0  0  0  0  0  0  0  0
   -3.9410    3.8008   -4.7937 H   0  0  0  0  0  0  0  0  0  0  0  0
   -1.5444    3.2592   -4.4122 H   0  0  0  0  0  0  0  0  0  0  0  0
   -0.9006    1.7175   -2.6437 H   0  0  0  0  0  0  0  0  0  0  0  0
   -2.7783   -0.4038    2.1161 H   0  0  0  0  0  0  0  0  0  0  0  0
   -3.2812   -2.0630    3.8557 H   0  0  0  0  0  0  0  0  0  0  0  0
   -2.5118   -3.8228    5.4027 H   0  0  0  0  0  0  0  0  0  0  0  0
   -0.1157   -4.4698    5.4591 H   0  0  0  0  0  0  0  0  0  0  0  0
    1.5070   -3.3376    3.9862 H   0  0  0  0  0  0  0  0  0  0  0  0
    1.9939   -1.5912    2.3288 H   0  0  0  0  0  0  0  0  0  0  0  0
    2.1563    1.7281    2.9722 H   0  0  0  0  0  0  0  0  0  0  0  0
    3.6078    2.4844    4.7828 H   0  0  0  0  0  0  0  0  0  0  0  0
    6.0320    1.9510    4.7535 H   0  0  0  0  0  0  0  0  0  0  0  0
    6.9822    0.6542    2.8934 H   0  0  0  0  0  0  0  0  0  0  0  0
    6.7281   -0.5230    0.7977 H   0  0  0  0  0  0  0  0  0  0  0  0
    6.5641   -1.7087   -1.2865 H   0  0  0  0  0  0  0  0  0  0  0  0
    6.4276   -2.9309   -3.4338 H   0  0  0  0  0  0  0  0  0  0  0  0
    5.0858   -3.7527   -5.3306 H   0  0  0  0  0  0  0  0  0  0  0  0
    2.6472   -3.2990   -5.4232 H   0  0  0  0  0  0  0  0  0  0  0  0
    1.5555   -2.0203   -3.6187 H   0  0  0  0  0  0  0  0  0  0  0  0
    1.7047   -0.8137   -1.5004 H   0  0  0  0  0  0  0  0  0  0  0  0
    2.8990    2.6806   -0.2005 H   0  0  0  0  0  0  0  0  0  0  0  0
    3.2733    4.9707   -0.9944 H   0  0  0  0  0  0  0  0  0  0  0  0
    2.3628    7.1747   -1.6246 H   0  0  0  0  0  0  0  0  0  0  0  0
   -0.0912    7.5494   -1.6439 H   0  0  0  0  0  0  0  0  0  0  0  0
   -1.6278    5.7135   -1.0480 H   0  0  0  0  0  0  0  0  0  0  0  0
   -1.9750    3.3869   -0.3516 H   0  0  0  0  0  0  0  0  0  0  0  0
  1  2  4  0
  2  3  4  0
  3  4  4  0
  4  5  4  0
  5  6  4  0
  6  7  4  0
  7  8  4  0
  8  9  4  0
  9 10  4  0
  7 11  4  0
 11 12  4  0
 12 13  4  0
 13 14  4  0
 14 15  4  0
 15 16  4  0
 16 17  4  0
 17 18  4  0
 18 19  1  0
 19 20  4  0
 20 21  4  0
 21 22  4  0
 22 23  4  0
 23 24  4  0
 24 25  4  0
 25 26  4  0
 26 27  4  0
 27 28  4  0
 28 29  4  0
 29 30  4  0
 30 31  1  0
 31 32  4  0
 32 33  4  0
 33 34  4  0
 34 35  4  0
 35 36  4  0
 36 37  4  0
 37 38  4  0
 38 39  4  0
 39 40  4  0
 40 41  4  0
 41 42  4  0
 42 43  4  0
 43 44  4  0
 44 45  4  0
 45 46  4  0
 46 47  4  0
 47 48  4  0
 30 49  4  0
 49 50  4  0
 50 51  4  0
 51 52  4  0
 52 53  4  0
 53 54  4  0
 54 55  4  0
 55 56  4  0
 56 57  4  0
 57 58  4  0
 10  1  4  0
 17 12  4  0
 58 19  4  0
  9  4  4  0
 29 20  4  0
 48 31  4  0
 58 49  4  0
 18  6  4  0
 27 22  4  0
 37 32  4  0
 48 39  4  0
 56 51  4  0
 46 41  4  0
  1 59  1  0
  2 60  1  0
  3 61  1  0
  5 62  1  0
  8 63  1  0
 10 64  1  0
 11 65  1  0
 13 66  1  0
 14 67  1  0
 15 68  1  0
 16 69  1  0
 21 70  1  0
 23 71  1  0
 24 72  1  0
 25 73  1  0
 26 74  1  0
 28 75  1  0
 33 76  1  0
 34 77  1  0
 35 78  1  0
 36 79  1  0
 38 80  1  0
 40 81  1  0
 42 82  1  0
 43 83  1  0
 44 84  1  0
 45 85  1  0
 47 86  1  0
 50 87  1  0
 52 88  1  0
 53 89  1  0
 54 90  1  0
 55 91  1  0
 57 92  1  0
M  END
