
     RDKit          3D

 92104  0  0  0  0  0  0  0  0999 V2000
    5.1267    6.3501    1.2314 C   0  0  0  0  0  0  0  0  0  0  0  0
    3.8335    6.1748    1.7139 C   0  0  0  0  0  0  0  0  0  0  0  0
    3.1195    5.0202    1.3901 C   0  0  0  0  0  0  0  0  0  0  0  0
    3.6908    4.0262    0.5787 C   0  0  0  0  0  0  0  0  0  0  0  0
    2.9855    2.8589    0.2431 C   0  0  0  0  0  0  0  0  0  0  0  0
    3.5573    1.8653   -0.5695 C   0  0  0  0  0  0  0  0  0  0  0  0
    2.8514    0.6979   -0.9077 C   0  0  0  0  0  0  0  0  0  0  0  0
    3.4064   -0.3139   -1.7267 C   0  0  0  0  0  0  0  0  0  0  0  0
    4.7234   -0.1209   -2.2064 C   0  0  0  0  0  0  0  0  0  0  0  0
    5.4295    1.0460   -1.8679 C   0  0  0  0  0  0  0  0  0  0  0  0
    4.8637    2.0419   -1.0567 C   0  0  0  0  0  0  0  0  0  0  0  0
    5.5720    3.2090   -0.7222 C   0  0  0  0  0  0  0  0  0  0  0  0
    5.0022    4.2039    0.0893 C   0  0  0  0  0  0  0  0  0  0  0  0
    5.7082    5.3712    0.4243 C   0  0  0  0  0  0  0  0  0  0  0  0
    5.3209   -1.0949   -3.0209 C   0  0  0  0  0  0  0  0  0  0  0  0
    4.6369   -2.2554   -3.3713 C   0  0  0  0  0  0  0  0  0  0  0  0
    3.3413   -2.4576   -2.9107 C   0  0  0  0  0  0  0  0  0  0  0  0
    2.7085   -1.5040   -2.0900 C   0  0  0  0  0  0  0  0  0  0  0  0
    1.3164   -1.7812   -1.6360 C   0  0  0  0  0  0  0  0  0  0  0  0
    1.1017   -2.5095   -0.4247 C   0  0  0  0  0  0  0  0  0  0  0  0
    2.1728   -2.9761    0.3844 C   0  0  0  0  0  0  0  0  0  0  0  0
    1.9812   -3.6919    1.5766 C   0  0  0  0  0  0  0  0  0  0  0  0
    3.0621   -4.1403    2.3556 C   0  0  0  0  0  0  0  0  0  0  0  0
    2.8448   -4.8516    3.5364 C   0  0  0  0  0  0  0  0  0  0  0  0
    1.5453   -5.1217    3.9528 C   0  0  0  0  0  0  0  0  0  0  0  0
    0.4650   -4.6793    3.1880 C   0  0  0  0  0  0  0  0  0  0  0  0
    0.6728   -3.9625    1.9963 C   0  0  0  0  0  0  0  0  0  0  0  0
   -0.3958   -3.5044    1.2098 C   0  0  0  0  0  0  0  0  0  0  0  0
   -0.2180   -2.7780    0.0010 C   0  0  0  0  0  0  0  0  0  0  0  0
   -1.3191   -2.3108   -0.7823 C   0  0  0  0  0  0  0  0  0  0  0  0
   -2.7118   -2.5770   -0.3242 C   0  0  0  0  0  0  0  0  0  0  0  0
   -3.3462   -3.7542   -0.7657 C   0  0  0  0  0  0  0  0  0  0  0  0
   -4.6463   -4.0525   -0.3746 C   0  0  0  0  0  0  0  0  0  0  0  0
   -5.3330   -3.1786    0.4642 C   0  0  0  0  0  0  0  0  0  0  0  0
   -4.7339   -1.9962    0.9262 C   0  0  0  0  0  0  0  0  0  0  0  0
   -5.4424   -1.1265    1.7739 C   0  0  0  0  0  0  0  0  0  0  0  0
   -4.8706    0.0615    2.2574 C   0  0  0  0  0  0  0  0  0  0  0  0
   -5.5782    0.9286    3.1081 C   0  0  0  0  0  0  0  0  0  0  0  0
   -4.9999    2.1142    3.5926 C   0  0  0  0  0  0  0  0  0  0  0  0
   -5.7042    2.9813    4.4449 C   0  0  0  0  0  0  0  0  0  0  0  0
   -5.1136    4.1546    4.9177 C   0  0  0  0  0  0  0  0  0  0  0  0
   -3.8122    4.4762    4.5448 C   0  0  0  0  0  0  0  0  0  0  0  0
   -3.0996    3.6251    3.6986 C   0  0  0  0  0  0  0  0  0  0  0  0
   -3.6805    2.4410    3.2149 C   0  0  0  0  0  0  0  0  0  0  0  0
   -2.9763    1.5743    2.3636 C   0  0  0  0  0  0  0  0  0  0  0  0
   -3.5569    0.3891    1.8813 C   0  0  0  0  0  0  0  0  0  0  0  0
   -2.8509   -0.4782    1.0309 C   0  0  0  0  0  0  0  0  0  0  0  0
   -3.4112   -1.6799    0.5370 C   0  0  0  0  0  0  0  0  0  0  0  0
   -1.1046   -1.5803   -1.9925 C   0  0  0  0  0  0  0  0  0  0  0  0
   -2.1759   -1.0954   -2.7911 C   0  0  0  0  0  0  0  0  0  0  0  0
   -1.9840   -0.3721   -3.9785 C   0  0  0  0  0  0  0  0  0  0  0  0
   -3.0644    0.0965   -4.7463 C   0  0  0  0  0  0  0  0  0  0  0  0
   -2.8460    0.8149   -5.9228 C   0  0  0  0  0  0  0  0  0  0  0  0
   -1.5461    1.0738   -6.3447 C   0  0  0  0  0  0  0  0  0  0  0  0
   -0.4666    0.6142   -5.5892 C   0  0  0  0  0  0  0  0  0  0  0  0
   -0.6754   -0.1111   -4.4032 C   0  0  0  0  0  0  0  0  0  0  0  0
    0.3928   -0.5824   -3.6246 C   0  0  0  0  0  0  0  0  0  0  0  0
    0.2151   -1.3160   -2.4203 C   0  0  0  0  0  0  0  0  0  0  0  0
    5.6844    7.2484    1.4826 H   0  0  0  0  0  0  0  0  0  0  0  0
    3.3786    6.9352    2.3430 H   0  0  0  0  0  0  0  0  0  0  0  0
    2.1101    4.9018    1.7773 H   0  0  0  0  0  0  0  0  0  0  0  0
    1.9737    2.7214    0.6204 H   0  0  0  0  0  0  0  0  0  0  0  0
    1.8400    0.5775   -0.5220 H   0  0  0  0  0  0  0  0  0  0  0  0
    6.4416    1.1841   -2.2454 H   0  0  0  0  0  0  0  0  0  0  0  0
    6.5838    3.3459   -1.0995 H   0  0  0  0  0  0  0  0  0  0  0  0
    6.7203    5.5269    0.0574 H   0  0  0  0  0  0  0  0  0  0  0  0
    6.3340   -0.9551   -3.3932 H   0  0  0  0  0  0  0  0  0  0  0  0
    5.1131   -3.0000   -4.0038 H   0  0  0  0  0  0  0  0  0  0  0  0
    2.8129   -3.3671   -3.1918 H   0  0  0  0  0  0  0  0  0  0  0  0
    3.2003   -2.7752    0.0834 H   0  0  0  0  0  0  0  0  0  0  0  0
    4.0843   -3.9357    2.0446 H   0  0  0  0  0  0  0  0  0  0  0  0
    3.6898   -5.1918    4.1290 H   0  0  0  0  0  0  0  0  0  0  0  0
    1.3708   -5.6740    4.8721 H   0  0  0  0  0  0  0  0  0  0  0  0
   -0.5450   -4.8964    3.5285 H   0  0  0  0  0  0  0  0  0  0  0  0
   -1.4033   -3.7237    1.5618 H   0  0  0  0  0  0  0  0  0  0  0  0
   -2.8163   -4.4420   -1.4228 H   0  0  0  0  0  0  0  0  0  0  0  0
   -5.1248   -4.9640   -0.7233 H   0  0  0  0  0  0  0  0  0  0  0  0
   -6.3500   -3.4304    0.7582 H   0  0  0  0  0  0  0  0  0  0  0  0
   -6.4603   -1.3800    2.0665 H   0  0  0  0  0  0  0  0  0  0  0  0
   -6.5961    0.6763    3.3995 H   0  0  0  0  0  0  0  0  0  0  0  0
   -6.7223    2.7471    4.7475 H   0  0  0  0  0  0  0  0  0  0  0  0
   -5.6705    4.8158    5.5763 H   0  0  0  0  0  0  0  0  0  0  0  0
   -3.3501    5.3890    4.9114 H   0  0  0  0  0  0  0  0  0  0  0  0
   -2.0830    3.8923    3.4177 H   0  0  0  0  0  0  0  0  0  0  0  0
   -1.9577    1.8253    2.0720 H   0  0  0  0  0  0  0  0  0  0  0  0
   -1.8343   -0.2076    0.7492 H   0  0  0  0  0  0  0  0  0  0  0  0
   -3.2038   -1.2803   -2.4810 H   0  0  0  0  0  0  0  0  0  0  0  0
   -4.0869   -0.0952   -4.4283 H   0  0  0  0  0  0  0  0  0  0  0  0
   -3.6905    1.1727   -6.5055 H   0  0  0  0  0  0  0  0  0  0  0  0
   -1.3709    1.6343   -7.2589 H   0  0  0  0  0  0  0  0  0  0  0  0
    0.5439    0.8270   -5.9305 H   0  0  0  0  0  0  0  0  0  0  0  0
    1.4003   -0.3591   -3.9739 H   0  0  0  0  0  0  0  0  0  0  0  0
  1  2  4  0
  2  3  4  0
  3  4  4  0
  4  5  4  0
  5  6  4  0
  6  7  4  0
  7  8  4  0
  8  9  4  0
  9 10  4  0
 10 11  4  0
 11 12  4  0
 12 13  4  0
 13 14  4  0
  9 15  4  0
 15 16  4  0
 16 17  4  0
 17 18  4  0
 18 19  1  0
 19 20  4  0
 20 21  4  0
 21 22  4  0
 22 23  4  0
 23 24  4  0
 24 25  4  0
 25 26  4  0
 26 27  4  0
 27 28  4  0
 28 29  4  0
 29 30  4  0
 30 31  1  0
 31 32  4  0
 32 33  4  0
 33 34  4  0
 34 35  4  0
 35 36  4  0
 36 37  4  0
 37 38  4  0
 38 39  4  0
 39 40  4  0
 40 41  4  0
 41 42  4  0
 42 43  4  0
 43 44  4  0
 44 45  4  0
 45 46  4  0
 46 47  4  0
 47 48  4  0
 30 49  4  0
 49 50  4  0
 50 51  4  0
 51 52  4  0
 52 53  4  0
 53 54  4  0
 54 55  4  0
 55 56  4  0
 56 57  4  0
 57 58  4  0
 14  1  4  0
 58 19  4  0
 13  4  4  0
 29 20  4  0
 48 31  4  0
 58 49  4  0
 11  6  4  0
 27 22  4  0
 48 35  4  0
 56 51  4  0
 18  8  4  0
 46 37  4  0
 44 39  4  0
  1 59  1  0
  2 60  1  0
  3 61  1  0
  5 62  1  0
  7 63  1  0
 10 64  1  0
 12 65  1  0
 14 66  1  0
 15 67  1  0
 16 68  1  0
 17 69  1  0
 21 70  1  0
 23 71  1  0
 24 72  1  0
 25 73  1  0
 26 74  1  0
 28 75  1  0
 32 76  1  0
 33 77  1  0
 34 78  1  0
 36 79  1  0
 38 80  1  0
 40 81  1  0
 41 82  1  0
 42 83  1  0
 43 84  1  0
 45 85  1  0
 47 86  1  0
 50 87  1  0
 52 88  1  0
 53 89  1  0
 54 90  1  0
 55 91  1  0
 57 92  1  0
M  END
