
     RDKit          3D

 92104  0  0  0  0  0  0  0  0999 V2000
  -12.1271    2.1678   -0.0861 C   0  0  0  0  0  0  0  0  0  0  0  0
  -11.3957    0.9944    0.1038 C   0  0  0  0  0  0  0  0  0  0  0  0
   -9.9915    1.0094    0.0707 C   0  0  0  0  0  0  0  0  0  0  0  0
   -9.2411   -0.1629    0.2602 C   0  0  0  0  0  0  0  0  0  0  0  0
   -7.8365   -0.1471    0.2268 C   0  0  0  0  0  0  0  0  0  0  0  0
   -7.0859   -1.3197    0.4159 C   0  0  0  0  0  0  0  0  0  0  0  0
   -5.6822   -1.3039    0.3817 C   0  0  0  0  0  0  0  0  0  0  0  0
   -4.9335   -2.4758    0.5688 C   0  0  0  0  0  0  0  0  0  0  0  0
   -3.5380   -2.4449    0.5307 C   0  0  0  0  0  0  0  0  0  0  0  0
   -2.8580   -1.2412    0.3042 C   0  0  0  0  0  0  0  0  0  0  0  0
   -1.3771   -1.2075    0.2548 C   0  0  0  0  0  0  0  0  0  0  0  0
   -0.7112   -1.4006   -0.9953 C   0  0  0  0  0  0  0  0  0  0  0  0
   -1.4173   -1.6232   -2.2091 C   0  0  0  0  0  0  0  0  0  0  0  0
   -0.7817   -1.8139   -3.4458 C   0  0  0  0  0  0  0  0  0  0  0  0
   -1.5093   -2.0310   -4.6291 C   0  0  0  0  0  0  0  0  0  0  0  0
   -0.8528   -2.2179   -5.8462 C   0  0  0  0  0  0  0  0  0  0  0  0
    0.5371   -2.1901   -5.8945 C   0  0  0  0  0  0  0  0  0  0  0  0
    1.2687   -1.9750   -4.7256 C   0  0  0  0  0  0  0  0  0  0  0  0
    0.6176   -1.7856   -3.4942 C   0  0  0  0  0  0  0  0  0  0  0  0
    1.3293   -1.5673   -2.3040 C   0  0  0  0  0  0  0  0  0  0  0  0
    0.7002   -1.3717   -1.0440 C   0  0  0  0  0  0  0  0  0  0  0  0
    1.4414   -1.1493    0.1577 C   0  0  0  0  0  0  0  0  0  0  0  0
    2.9226   -1.1202    0.1073 C   0  0  0  0  0  0  0  0  0  0  0  0
    3.6674   -2.2924    0.2909 C   0  0  0  0  0  0  0  0  0  0  0  0
    5.0629   -2.2618    0.2444 C   0  0  0  0  0  0  0  0  0  0  0  0
    5.7466   -1.0585    0.0128 C   0  0  0  0  0  0  0  0  0  0  0  0
    7.1493   -1.0119   -0.0359 C   0  0  0  0  0  0  0  0  0  0  0  0
    7.8349    0.1924   -0.2682 C   0  0  0  0  0  0  0  0  0  0  0  0
    9.2383    0.2383   -0.3160 C   0  0  0  0  0  0  0  0  0  0  0  0
    9.9245    1.4418   -0.5479 C   0  0  0  0  0  0  0  0  0  0  0  0
   11.3275    1.4881   -0.5948 C   0  0  0  0  0  0  0  0  0  0  0  0
   11.9951    2.6918   -0.8260 C   0  0  0  0  0  0  0  0  0  0  0  0
   11.2691    3.8638   -1.0134 C   0  0  0  0  0  0  0  0  0  0  0  0
    9.8744    3.8339   -0.9699 C   0  0  0  0  0  0  0  0  0  0  0  0
    9.1881    2.6303   -0.7377 C   0  0  0  0  0  0  0  0  0  0  0  0
    7.7850    2.5835   -0.6900 C   0  0  0  0  0  0  0  0  0  0  0  0
    7.0995    1.3792   -0.4569 C   0  0  0  0  0  0  0  0  0  0  0  0
    5.6962    1.3330   -0.4074 C   0  0  0  0  0  0  0  0  0  0  0  0
    5.0103    0.1295   -0.1748 C   0  0  0  0  0  0  0  0  0  0  0  0
    3.6068    0.0845   -0.1250 C   0  0  0  0  0  0  0  0  0  0  0  0
    0.7753   -0.9528    1.4073 C   0  0  0  0  0  0  0  0  0  0  0  0
    1.4809   -0.7253    2.6203 C   0  0  0  0  0  0  0  0  0  0  0  0
    0.8448   -0.5298    3.8561 C   0  0  0  0  0  0  0  0  0  0  0  0
    1.5719   -0.3067    5.0384 C   0  0  0  0  0  0  0  0  0  0  0  0
    0.9154   -0.1142    6.2547 C   0  0  0  0  0  0  0  0  0  0  0  0
   -0.4744   -0.1429    6.3035 C   0  0  0  0  0  0  0  0  0  0  0  0
   -1.2059   -0.3634    5.1354 C   0  0  0  0  0  0  0  0  0  0  0  0
   -0.5546   -0.5583    3.9046 C   0  0  0  0  0  0  0  0  0  0  0  0
   -1.2659   -0.7815    2.7150 C   0  0  0  0  0  0  0  0  0  0  0  0
   -0.6363   -0.9818    1.4560 C   0  0  0  0  0  0  0  0  0  0  0  0
   -3.6070   -0.0676    0.1181 C   0  0  0  0  0  0  0  0  0  0  0  0
   -5.0114   -0.0846    0.1532 C   0  0  0  0  0  0  0  0  0  0  0  0
   -5.7620    1.0871   -0.0360 C   0  0  0  0  0  0  0  0  0  0  0  0
   -7.1662    1.0708   -0.0020 C   0  0  0  0  0  0  0  0  0  0  0  0
   -7.9158    2.2438   -0.1919 C   0  0  0  0  0  0  0  0  0  0  0  0
   -9.3198    2.2291   -0.1581 C   0  0  0  0  0  0  0  0  0  0  0  0
  -10.0699    3.4015   -0.3474 C   0  0  0  0  0  0  0  0  0  0  0  0
  -11.4648    3.3704   -0.3115 C   0  0  0  0  0  0  0  0  0  0  0  0
  -13.2133    2.1413   -0.0578 H   0  0  0  0  0  0  0  0  0  0  0  0
  -11.9317    0.0642    0.2788 H   0  0  0  0  0  0  0  0  0  0  0  0
   -9.7605   -1.1032    0.4361 H   0  0  0  0  0  0  0  0  0  0  0  0
   -7.6029   -2.2612    0.5919 H   0  0  0  0  0  0  0  0  0  0  0  0
   -5.4315   -3.4267    0.7446 H   0  0  0  0  0  0  0  0  0  0  0  0
   -2.9792   -3.3674    0.6768 H   0  0  0  0  0  0  0  0  0  0  0  0
   -2.5064   -1.6499   -2.1998 H   0  0  0  0  0  0  0  0  0  0  0  0
   -2.5967   -2.0554   -4.6082 H   0  0  0  0  0  0  0  0  0  0  0  0
   -1.4275   -2.3848   -6.7533 H   0  0  0  0  0  0  0  0  0  0  0  0
    1.0531   -2.3353   -6.8397 H   0  0  0  0  0  0  0  0  0  0  0  0
    2.3550   -1.9560   -4.7807 H   0  0  0  0  0  0  0  0  0  0  0  0
    2.4166   -1.5499   -2.3697 H   0  0  0  0  0  0  0  0  0  0  0  0
    3.1598   -3.2379    0.4722 H   0  0  0  0  0  0  0  0  0  0  0  0
    5.6126   -3.1890    0.3913 H   0  0  0  0  0  0  0  0  0  0  0  0
    7.7179   -1.9287    0.1094 H   0  0  0  0  0  0  0  0  0  0  0  0
    9.8078   -0.6778   -0.1694 H   0  0  0  0  0  0  0  0  0  0  0  0
   11.9129    0.5827   -0.4510 H   0  0  0  0  0  0  0  0  0  0  0  0
   13.0812    2.7128   -0.8597 H   0  0  0  0  0  0  0  0  0  0  0  0
   11.7868    4.8023   -1.1937 H   0  0  0  0  0  0  0  0  0  0  0  0
    9.3250    4.7608   -1.1187 H   0  0  0  0  0  0  0  0  0  0  0  0
    7.2179    3.5010   -0.8371 H   0  0  0  0  0  0  0  0  0  0  0  0
    5.1271    2.2499   -0.5517 H   0  0  0  0  0  0  0  0  0  0  0  0
    3.0303    0.9975   -0.2683 H   0  0  0  0  0  0  0  0  0  0  0  0
    2.5701   -0.6965    2.6105 H   0  0  0  0  0  0  0  0  0  0  0  0
    2.6593   -0.2806    5.0173 H   0  0  0  0  0  0  0  0  0  0  0  0
    1.4901    0.0584    7.1607 H   0  0  0  0  0  0  0  0  0  0  0  0
   -0.9905    0.0070    7.2481 H   0  0  0  0  0  0  0  0  0  0  0  0
   -2.2922   -0.3817    5.1905 H   0  0  0  0  0  0  0  0  0  0  0  0
   -2.3534   -0.7975    2.7801 H   0  0  0  0  0  0  0  0  0  0  0  0
   -3.0809    0.8696   -0.0591 H   0  0  0  0  0  0  0  0  0  0  0  0
   -5.2445    2.0284   -0.2133 H   0  0  0  0  0  0  0  0  0  0  0  0
   -7.3978    3.1846   -0.3696 H   0  0  0  0  0  0  0  0  0  0  0  0
   -9.5704    4.3513   -0.5249 H   0  0  0  0  0  0  0  0  0  0  0  0
  -12.0323    4.2854   -0.4596 H   0  0  0  0  0  0  0  0  0  0  0  0
  1  2  4  0
  2  3  4  0
  3  4  4  0
  4  5  4  0
  5  6  4  0
  6  7  4  0
  7  8  4  0
  8  9  4  0
  9 10  4  0
 10 11  1  0
 11 12  4  0
 12 13  4  0
 13 14  4  0
 14 15  4  0
 15 16  4  0
 16 17  4  0
 17 18  4  0
 18 19  4  0
 19 20  4  0
 20 21  4  0
 21 22  4  0
 22 23  1  0
 23 24  4  0
 24 25  4  0
 25 26  4  0
 26 27  4  0
 27 28  4  0
 28 29  4  0
 29 30  4  0
 30 31  4  0
 31 32  4  0
 32 33  4  0
 33 34  4  0
 34 35  4  0
 35 36  4  0
 36 37  4  0
 37 38  4  0
 38 39  4  0
 39 40  4  0
 22 41  4  0
 41 42  4  0
 42 43  4  0
 43 44  4  0
 44 45  4  0
 45 46  4  0
 46 47  4  0
 47 48  4  0
 48 49  4  0
 49 50  4  0
 10 51  4  0
 51 52  4  0
 52 53  4  0
 53 54  4  0
 54 55  4  0
 55 56  4  0
 56 57  4  0
 57 58  4  0
 58  1  4  0
 56  3  4  0
 54  5  4  0
 52  7  4  0
 50 11  4  0
 21 12  4  0
 40 23  4  0
 50 41  4  0
 19 14  4  0
 39 26  4  0
 48 43  4  0
 37 28  4  0
 35 30  4  0
  1 59  1  0
  2 60  1  0
  4 61  1  0
  6 62  1  0
  8 63  1  0
  9 64  1  0
 13 65  1  0
 15 66  1  0
 16 67  1  0
 17 68  1  0
 18 69  1  0
 20 70  1  0
 24 71  1  0
 25 72  1  0
 27 73  1  0
 29 74  1  0
 31 75  1  0
 32 76  1  0
 33 77  1  0
 34 78  1  0
 36 79  1  0
 38 80  1  0
 40 81  1  0
 42 82  1  0
 44 83  1  0
 45 84  1  0
 46 85  1  0
 47 86  1  0
 49 87  1  0
 51 88  1  0
 53 89  1  0
 55 90  1  0
 57 91  1  0
 58 92  1  0
M  END
