
     RDKit          3D

 92104  0  0  0  0  0  0  0  0999 V2000
    9.1476    1.7396    3.9445 C   0  0  0  0  0  0  0  0  0  0  0  0
    8.9853    1.6417    2.5614 C   0  0  0  0  0  0  0  0  0  0  0  0
    7.7190    1.4047    2.0005 C   0  0  0  0  0  0  0  0  0  0  0  0
    7.5380    1.3034    0.6110 C   0  0  0  0  0  0  0  0  0  0  0  0
    6.2698    1.0677    0.0519 C   0  0  0  0  0  0  0  0  0  0  0  0
    6.0848    0.9677   -1.3361 C   0  0  0  0  0  0  0  0  0  0  0  0
    4.8182    0.7332   -1.8982 C   0  0  0  0  0  0  0  0  0  0  0  0
    4.6698    0.6406   -3.2908 C   0  0  0  0  0  0  0  0  0  0  0  0
    3.4238    0.4091   -3.8667 C   0  0  0  0  0  0  0  0  0  0  0  0
    2.3055    0.2636   -3.0541 C   0  0  0  0  0  0  0  0  0  0  0  0
    2.4146    0.3487   -1.6524 C   0  0  0  0  0  0  0  0  0  0  0  0
    1.1782    0.1748   -0.8390 C   0  0  0  0  0  0  0  0  0  0  0  0
    0.8094   -1.1319   -0.3916 C   0  0  0  0  0  0  0  0  0  0  0  0
    1.5876   -2.2848   -0.6841 C   0  0  0  0  0  0  0  0  0  0  0  0
    1.2438   -3.5747   -0.2521 C   0  0  0  0  0  0  0  0  0  0  0  0
    2.0375   -4.6949   -0.5546 C   0  0  0  0  0  0  0  0  0  0  0  0
    1.6725   -5.9675   -0.1141 C   0  0  0  0  0  0  0  0  0  0  0  0
    0.5110   -6.1347    0.6326 C   0  0  0  0  0  0  0  0  0  0  0  0
   -0.2837   -5.0291    0.9387 C   0  0  0  0  0  0  0  0  0  0  0  0
    0.0754   -3.7422    0.5017 C   0  0  0  0  0  0  0  0  0  0  0  0
   -0.7031   -2.6127    0.8003 C   0  0  0  0  0  0  0  0  0  0  0  0
   -0.3646   -1.2993    0.3756 C   0  0  0  0  0  0  0  0  0  0  0  0
   -1.1642   -0.1585    0.6968 C   0  0  0  0  0  0  0  0  0  0  0  0
   -2.3859   -0.3284    1.5331 C   0  0  0  0  0  0  0  0  0  0  0  0
   -3.6713   -0.5795    0.9685 C   0  0  0  0  0  0  0  0  0  0  0  0
   -3.9031   -0.6963   -0.4222 C   0  0  0  0  0  0  0  0  0  0  0  0
   -5.1804   -0.9421   -0.9547 C   0  0  0  0  0  0  0  0  0  0  0  0
   -5.3879   -1.0546   -2.3399 C   0  0  0  0  0  0  0  0  0  0  0  0
   -6.6644   -1.3003   -2.8718 C   0  0  0  0  0  0  0  0  0  0  0  0
   -6.8727   -1.4132   -4.2564 C   0  0  0  0  0  0  0  0  0  0  0  0
   -8.1474   -1.6580   -4.7691 C   0  0  0  0  0  0  0  0  0  0  0  0
   -9.2296   -1.7926   -3.9050 C   0  0  0  0  0  0  0  0  0  0  0  0
   -9.0386   -1.6826   -2.5267 C   0  0  0  0  0  0  0  0  0  0  0  0
   -7.7616   -1.4367   -1.9953 C   0  0  0  0  0  0  0  0  0  0  0  0
   -7.5519   -1.3235   -0.6109 C   0  0  0  0  0  0  0  0  0  0  0  0
   -6.2732   -1.0779   -0.0813 C   0  0  0  0  0  0  0  0  0  0  0  0
   -6.0597   -0.9646    1.3014 C   0  0  0  0  0  0  0  0  0  0  0  0
   -4.7824   -0.7194    1.8337 C   0  0  0  0  0  0  0  0  0  0  0  0
   -4.6060   -0.6116    3.2219 C   0  0  0  0  0  0  0  0  0  0  0  0
   -3.3494   -0.3672    3.7685 C   0  0  0  0  0  0  0  0  0  0  0  0
   -2.2491   -0.2273    2.9313 C   0  0  0  0  0  0  0  0  0  0  0  0
   -0.7978    1.1477    0.2452 C   0  0  0  0  0  0  0  0  0  0  0  0
   -1.5752    2.3015    0.5369 C   0  0  0  0  0  0  0  0  0  0  0  0
   -1.2256    3.5923    0.1114 C   0  0  0  0  0  0  0  0  0  0  0  0
   -2.0155    4.7147    0.4163 C   0  0  0  0  0  0  0  0  0  0  0  0
   -1.6409    5.9885   -0.0130 C   0  0  0  0  0  0  0  0  0  0  0  0
   -0.4736    6.1548   -0.7512 C   0  0  0  0  0  0  0  0  0  0  0  0
    0.3160    5.0470   -1.0618 C   0  0  0  0  0  0  0  0  0  0  0  0
   -0.0532    3.7593   -0.6363 C   0  0  0  0  0  0  0  0  0  0  0  0
    0.7209    2.6286   -0.9392 C   0  0  0  0  0  0  0  0  0  0  0  0
    0.3776    1.3150   -0.5199 C   0  0  0  0  0  0  0  0  0  0  0  0
    3.6890    0.5896   -1.0582 C   0  0  0  0  0  0  0  0  0  0  0  0
    3.8921    0.6929    0.3385 C   0  0  0  0  0  0  0  0  0  0  0  0
    5.1585    0.9289    0.9007 C   0  0  0  0  0  0  0  0  0  0  0  0
    5.3370    1.0290    2.2911 C   0  0  0  0  0  0  0  0  0  0  0  0
    6.6029    1.2655    2.8522 C   0  0  0  0  0  0  0  0  0  0  0  0
    6.7823    1.3664    4.2420 C   0  0  0  0  0  0  0  0  0  0  0  0
    8.0468    1.6019    4.7842 C   0  0  0  0  0  0  0  0  0  0  0  0
   10.1334    1.9231    4.3643 H   0  0  0  0  0  0  0  0  0  0  0  0
    9.8579    1.7522    1.9216 H   0  0  0  0  0  0  0  0  0  0  0  0
    8.3988    1.4095   -0.0463 H   0  0  0  0  0  0  0  0  0  0  0  0
    6.9465    1.0758   -1.9928 H   0  0  0  0  0  0  0  0  0  0  0  0
    5.5334    0.7496   -3.9439 H   0  0  0  0  0  0  0  0  0  0  0  0
    3.3251    0.3412   -4.9468 H   0  0  0  0  0  0  0  0  0  0  0  0
    1.3352    0.0801   -3.5128 H   0  0  0  0  0  0  0  0  0  0  0  0
    2.5025   -2.1824   -1.2668 H   0  0  0  0  0  0  0  0  0  0  0  0
    2.9497   -4.5812   -1.1365 H   0  0  0  0  0  0  0  0  0  0  0  0
    2.2951   -6.8253   -0.3543 H   0  0  0  0  0  0  0  0  0  0  0  0
    0.2224   -7.1239    0.9774 H   0  0  0  0  0  0  0  0  0  0  0  0
   -1.1888   -5.1769    1.5235 H   0  0  0  0  0  0  0  0  0  0  0  0
   -1.6079   -2.7712    1.3860 H   0  0  0  0  0  0  0  0  0  0  0  0
   -3.0677   -0.5935   -1.1134 H   0  0  0  0  0  0  0  0  0  0  0  0
   -4.5407   -0.9489   -3.0156 H   0  0  0  0  0  0  0  0  0  0  0  0
   -6.0392   -1.3108   -4.9477 H   0  0  0  0  0  0  0  0  0  0  0  0
   -8.2937   -1.7431   -5.8427 H   0  0  0  0  0  0  0  0  0  0  0  0
  -10.2232   -1.9831   -4.3020 H   0  0  0  0  0  0  0  0  0  0  0  0
   -9.8973   -1.7906   -1.8679 H   0  0  0  0  0  0  0  0  0  0  0  0
   -8.3984   -1.4288    0.0652 H   0  0  0  0  0  0  0  0  0  0  0  0
   -6.9070   -1.0701    1.9771 H   0  0  0  0  0  0  0  0  0  0  0  0
   -5.4554   -0.7175    3.8943 H   0  0  0  0  0  0  0  0  0  0  0  0
   -3.2282   -0.2843    4.8453 H   0  0  0  0  0  0  0  0  0  0  0  0
   -1.2703   -0.0346    3.3678 H   0  0  0  0  0  0  0  0  0  0  0  0
   -2.4916    2.1994    1.1171 H   0  0  0  0  0  0  0  0  0  0  0  0
   -2.9312    4.6015    0.9926 H   0  0  0  0  0  0  0  0  0  0  0  0
   -2.2602    6.8479    0.2295 H   0  0  0  0  0  0  0  0  0  0  0  0
   -0.1762    7.1448   -1.0861 H   0  0  0  0  0  0  0  0  0  0  0  0
    1.2264    5.1941   -1.6387 H   0  0  0  0  0  0  0  0  0  0  0  0
    1.6280    2.7869   -1.5216 H   0  0  0  0  0  0  0  0  0  0  0  0
    3.0416    0.5874    1.0109 H   0  0  0  0  0  0  0  0  0  0  0  0
    4.4752    0.9213    2.9477 H   0  0  0  0  0  0  0  0  0  0  0  0
    5.9328    1.2614    4.9133 H   0  0  0  0  0  0  0  0  0  0  0  0
    8.1703    1.6776    5.8614 H   0  0  0  0  0  0  0  0  0  0  0  0
  1  2  4  0
  2  3  4  0
  3  4  4  0
  4  5  4  0
  5  6  4  0
  6  7  4  0
  7  8  4  0
  8  9  4  0
  9 10  4  0
 10 11  4  0
 11 12  1  0
 12 13  4  0
 13 14  4  0
 14 15  4  0
 15 16  4  0
 16 17  4  0
 17 18  4  0
 18 19  4  0
 19 20  4  0
 20 21  4  0
 21 22  4  0
 22 23  4  0
 23 24  1  0
 24 25  4  0
 25 26  4  0
 26 27  4  0
 27 28  4  0
 28 29  4  0
 29 30  4  0
 30 31  4  0
 31 32  4  0
 32 33  4  0
 33 34  4  0
 34 35  4  0
 35 36  4  0
 36 37  4  0
 37 38  4  0
 38 39  4  0
 39 40  4  0
 40 41  4  0
 23 42  4  0
 42 43  4  0
 43 44  4  0
 44 45  4  0
 45 46  4  0
 46 47  4  0
 47 48  4  0
 48 49  4  0
 49 50  4  0
 50 51  4  0
 11 52  4  0
 52 53  4  0
 53 54  4  0
 54 55  4  0
 55 56  4  0
 56 57  4  0
 57 58  4  0
 58  1  4  0
 56  3  4  0
 54  5  4  0
 52  7  4  0
 51 12  4  0
 22 13  4  0
 41 24  4  0
 51 42  4  0
 20 15  4  0
 38 25  4  0
 49 44  4  0
 36 27  4  0
 34 29  4  0
  1 59  1  0
  2 60  1  0
  4 61  1  0
  6 62  1  0
  8 63  1  0
  9 64  1  0
 10 65  1  0
 14 66  1  0
 16 67  1  0
 17 68  1  0
 18 69  1  0
 19 70  1  0
 21 71  1  0
 26 72  1  0
 28 73  1  0
 30 74  1  0
 31 75  1  0
 32 76  1  0
 33 77  1  0
 35 78  1  0
 37 79  1  0
 39 80  1  0
 40 81  1  0
 41 82  1  0
 43 83  1  0
 45 84  1  0
 46 85  1  0
 47 86  1  0
 48 87  1  0
 50 88  1  0
 53 89  1  0
 55 90  1  0
 57 91  1  0
 58 92  1  0
M  END
