
     RDKit          3D

104118  0  0  0  0  0  0  0  0999 V2000
  -15.0085    0.5698   -0.0029 C   0  0  0  0  0  0  0  0  0  0  0  0
  -13.9627    0.1138   -0.8068 C   0  0  0  0  0  0  0  0  0  0  0  0
  -12.6262    0.2605   -0.3993 C   0  0  0  0  0  0  0  0  0  0  0  0
  -11.5623   -0.1926   -1.1970 C   0  0  0  0  0  0  0  0  0  0  0  0
  -10.2256   -0.0445   -0.7894 C   0  0  0  0  0  0  0  0  0  0  0  0
   -9.1610   -0.4959   -1.5877 C   0  0  0  0  0  0  0  0  0  0  0  0
   -7.8242   -0.3468   -1.1812 C   0  0  0  0  0  0  0  0  0  0  0  0
   -6.7599   -0.7970   -1.9805 C   0  0  0  0  0  0  0  0  0  0  0  0
   -5.4240   -0.6468   -1.5740 C   0  0  0  0  0  0  0  0  0  0  0  0
   -4.3622   -1.0953   -2.3742 C   0  0  0  0  0  0  0  0  0  0  0  0
   -3.0388   -0.9379   -1.9576 C   0  0  0  0  0  0  0  0  0  0  0  0
   -2.7454   -0.3298   -0.7301 C   0  0  0  0  0  0  0  0  0  0  0  0
   -1.3405   -0.1617   -0.2887 C   0  0  0  0  0  0  0  0  0  0  0  0
   -0.7084   -1.2012    0.4618 C   0  0  0  0  0  0  0  0  0  0  0  0
   -1.3806   -2.4021    0.8179 C   0  0  0  0  0  0  0  0  0  0  0  0
   -0.7747   -3.4354    1.5495 C   0  0  0  0  0  0  0  0  0  0  0  0
   -1.4663   -4.6125    1.8847 C   0  0  0  0  0  0  0  0  0  0  0  0
   -0.8400   -5.6262    2.6113 C   0  0  0  0  0  0  0  0  0  0  0  0
    0.4837   -5.4748    3.0112 C   0  0  0  0  0  0  0  0  0  0  0  0
    1.1792   -4.3100    2.6845 C   0  0  0  0  0  0  0  0  0  0  0  0
    0.5577   -3.2828    1.9529 C   0  0  0  0  0  0  0  0  0  0  0  0
    1.2340   -2.1013    1.6116 C   0  0  0  0  0  0  0  0  0  0  0  0
    0.6346   -1.0458    0.8716 C   0  0  0  0  0  0  0  0  0  0  0  0
    1.3403    0.1500    0.5329 C   0  0  0  0  0  0  0  0  0  0  0  0
    2.7506    0.3118    0.9592 C   0  0  0  0  0  0  0  0  0  0  0  0
    3.0628    0.9038    2.1897 C   0  0  0  0  0  0  0  0  0  0  0  0
    4.3929    1.0575    2.5866 C   0  0  0  0  0  0  0  0  0  0  0  0
    5.4422    0.6225    1.7627 C   0  0  0  0  0  0  0  0  0  0  0  0
    6.7845    0.7709    2.1475 C   0  0  0  0  0  0  0  0  0  0  0  0
    7.8357    0.3346    1.3233 C   0  0  0  0  0  0  0  0  0  0  0  0
    9.1790    0.4819    1.7085 C   0  0  0  0  0  0  0  0  0  0  0  0
   10.2307    0.0457    0.8851 C   0  0  0  0  0  0  0  0  0  0  0  0
   11.5739    0.1930    1.2713 C   0  0  0  0  0  0  0  0  0  0  0  0
   12.6252   -0.2431    0.4479 C   0  0  0  0  0  0  0  0  0  0  0  0
   13.9683   -0.0962    0.8330 C   0  0  0  0  0  0  0  0  0  0  0  0
   15.0013   -0.5349    0.0032 C   0  0  0  0  0  0  0  0  0  0  0  0
   14.7053   -1.1255   -1.2212 C   0  0  0  0  0  0  0  0  0  0  0  0
   13.3759   -1.2785   -1.6178 C   0  0  0  0  0  0  0  0  0  0  0  0
   12.3252   -0.8421   -0.7939 C   0  0  0  0  0  0  0  0  0  0  0  0
   10.9823   -0.9891   -1.1788 C   0  0  0  0  0  0  0  0  0  0  0  0
    9.9315   -0.5525   -0.3544 C   0  0  0  0  0  0  0  0  0  0  0  0
    8.5882   -0.6998   -0.7397 C   0  0  0  0  0  0  0  0  0  0  0  0
    7.5367   -0.2639    0.0839 C   0  0  0  0  0  0  0  0  0  0  0  0
    6.1938   -0.4118   -0.3021 C   0  0  0  0  0  0  0  0  0  0  0  0
    5.1431    0.0237    0.5216 C   0  0  0  0  0  0  0  0  0  0  0  0
    3.8007   -0.1244    0.1345 C   0  0  0  0  0  0  0  0  0  0  0  0
    0.7072    1.1908   -0.2146 C   0  0  0  0  0  0  0  0  0  0  0  0
    1.3797    2.3920   -0.5693 C   0  0  0  0  0  0  0  0  0  0  0  0
    0.7762    3.4242   -1.3041 C   0  0  0  0  0  0  0  0  0  0  0  0
    1.4693    4.6003   -1.6403 C   0  0  0  0  0  0  0  0  0  0  0  0
    0.8459    5.6118   -2.3721 C   0  0  0  0  0  0  0  0  0  0  0  0
   -0.4766    5.4589   -2.7756 C   0  0  0  0  0  0  0  0  0  0  0  0
   -1.1734    4.2952   -2.4473 C   0  0  0  0  0  0  0  0  0  0  0  0
   -0.5548    3.2701   -1.7110 C   0  0  0  0  0  0  0  0  0  0  0  0
   -1.2326    2.0895   -1.3691 C   0  0  0  0  0  0  0  0  0  0  0  0
   -0.6351    1.0350   -0.6259 C   0  0  0  0  0  0  0  0  0  0  0  0
   -3.8080    0.1184    0.0718 C   0  0  0  0  0  0  0  0  0  0  0  0
   -5.1445   -0.0317   -0.3361 C   0  0  0  0  0  0  0  0  0  0  0  0
   -6.2089    0.4184    0.4623 C   0  0  0  0  0  0  0  0  0  0  0  0
   -7.5452    0.2682    0.0547 C   0  0  0  0  0  0  0  0  0  0  0  0
   -8.6096    0.7187    0.8534 C   0  0  0  0  0  0  0  0  0  0  0  0
   -9.9463    0.5707    0.4464 C   0  0  0  0  0  0  0  0  0  0  0  0
  -11.0097    1.0237    1.2455 C   0  0  0  0  0  0  0  0  0  0  0  0
  -12.3461    0.8770    0.8386 C   0  0  0  0  0  0  0  0  0  0  0  0
  -13.4096    1.3306    1.6364 C   0  0  0  0  0  0  0  0  0  0  0  0
  -14.7322    1.1778    1.2177 C   0  0  0  0  0  0  0  0  0  0  0  0
  -16.0377    0.4497   -0.3308 H   0  0  0  0  0  0  0  0  0  0  0  0
  -14.1991   -0.3587   -1.7575 H   0  0  0  0  0  0  0  0  0  0  0  0
  -11.7798   -0.6681   -2.1518 H   0  0  0  0  0  0  0  0  0  0  0  0
   -9.3773   -0.9712   -2.5430 H   0  0  0  0  0  0  0  0  0  0  0  0
   -6.9741   -1.2722   -2.9360 H   0  0  0  0  0  0  0  0  0  0  0  0
   -4.5560   -1.5714   -3.3328 H   0  0  0  0  0  0  0  0  0  0  0  0
   -2.2319   -1.2927   -2.5962 H   0  0  0  0  0  0  0  0  0  0  0  0
   -2.4177   -2.5466    0.5169 H   0  0  0  0  0  0  0  0  0  0  0  0
   -2.5019   -4.7454    1.5795 H   0  0  0  0  0  0  0  0  0  0  0  0
   -1.3861   -6.5312    2.8636 H   0  0  0  0  0  0  0  0  0  0  0  0
    0.9759   -6.2613    3.5771 H   0  0  0  0  0  0  0  0  0  0  0  0
    2.2137   -4.2071    3.0049 H   0  0  0  0  0  0  0  0  0  0  0  0
    2.2690   -2.0078    1.9384 H   0  0  0  0  0  0  0  0  0  0  0  0
    2.2663    1.2496    2.8458 H   0  0  0  0  0  0  0  0  0  0  0  0
    4.6026    1.5217    3.5478 H   0  0  0  0  0  0  0  0  0  0  0  0
    7.0153    1.2342    3.1051 H   0  0  0  0  0  0  0  0  0  0  0  0
    9.4106    0.9442    2.6665 H   0  0  0  0  0  0  0  0  0  0  0  0
   11.8068    0.6546    2.2293 H   0  0  0  0  0  0  0  0  0  0  0  0
   14.2200    0.3630    1.7863 H   0  0  0  0  0  0  0  0  0  0  0  0
   16.0358   -0.4148    0.3141 H   0  0  0  0  0  0  0  0  0  0  0  0
   15.5081   -1.4679   -1.8690 H   0  0  0  0  0  0  0  0  0  0  0  0
   13.1646   -1.7426   -2.5785 H   0  0  0  0  0  0  0  0  0  0  0  0
   10.7524   -1.4518   -2.1370 H   0  0  0  0  0  0  0  0  0  0  0  0
    8.3576   -1.1624   -1.6978 H   0  0  0  0  0  0  0  0  0  0  0  0
    5.9612   -0.8740   -1.2600 H   0  0  0  0  0  0  0  0  0  0  0  0
    3.5610   -0.5851   -0.8230 H   0  0  0  0  0  0  0  0  0  0  0  0
    2.4159    2.5372   -0.2659 H   0  0  0  0  0  0  0  0  0  0  0  0
    2.5040    4.7343   -1.3326 H   0  0  0  0  0  0  0  0  0  0  0  0
    1.3932    6.5157   -2.6260 H   0  0  0  0  0  0  0  0  0  0  0  0
   -0.9676    6.2428   -3.3459 H   0  0  0  0  0  0  0  0  0  0  0  0
   -2.2069    4.1911   -2.7705 H   0  0  0  0  0  0  0  0  0  0  0  0
   -2.2666    1.9952   -1.6993 H   0  0  0  0  0  0  0  0  0  0  0  0
   -3.5833    0.5919    1.0266 H   0  0  0  0  0  0  0  0  0  0  0  0
   -5.9936    0.8940    1.4177 H   0  0  0  0  0  0  0  0  0  0  0  0
   -8.3945    1.1942    1.8088 H   0  0  0  0  0  0  0  0  0  0  0  0
  -10.7941    1.4998    2.2003 H   0  0  0  0  0  0  0  0  0  0  0  0
  -13.2141    1.8083    2.5939 H   0  0  0  0  0  0  0  0  0  0  0  0
  -15.5451    1.5336    1.8453 H   0  0  0  0  0  0  0  0  0  0  0  0
  1  2  4  0
  2  3  4  0
  3  4  4  0
  4  5  4  0
  5  6  4  0
  6  7  4  0
  7  8  4  0
  8  9  4  0
  9 10  4  0
 10 11  4  0
 11 12  4  0
 12 13  1  0
 13 14  4  0
 14 15  4  0
 15 16  4  0
 16 17  4  0
 17 18  4  0
 18 19  4  0
 19 20  4  0
 20 21  4  0
 21 22  4  0
 22 23  4  0
 23 24  4  0
 24 25  1  0
 25 26  4  0
 26 27  4  0
 27 28  4  0
 28 29  4  0
 29 30  4  0
 30 31  4  0
 31 32  4  0
 32 33  4  0
 33 34  4  0
 34 35  4  0
 35 36  4  0
 36 37  4  0
 37 38  4  0
 38 39  4  0
 39 40  4  0
 40 41  4  0
 41 42  4  0
 42 43  4  0
 43 44  4  0
 44 45  4  0
 45 46  4  0
 24 47  4  0
 47 48  4  0
 48 49  4  0
 49 50  4  0
 50 51  4  0
 51 52  4  0
 52 53  4  0
 53 54  4  0
 54 55  4  0
 55 56  4  0
 12 57  4  0
 57 58  4  0
 58 59  4  0
 59 60  4  0
 60 61  4  0
 61 62  4  0
 62 63  4  0
 63 64  4  0
 64 65  4  0
 65 66  4  0
 66  1  4  0
 64  3  4  0
 62  5  4  0
 60  7  4  0
 58  9  4  0
 56 13  4  0
 23 14  4  0
 46 25  4  0
 56 47  4  0
 21 16  4  0
 45 28  4  0
 54 49  4  0
 43 30  4  0
 41 32  4  0
 39 34  4  0
  1 67  1  0
  2 68  1  0
  4 69  1  0
  6 70  1  0
  8 71  1  0
 10 72  1  0
 11 73  1  0
 15 74  1  0
 17 75  1  0
 18 76  1  0
 19 77  1  0
 20 78  1  0
 22 79  1  0
 26 80  1  0
 27 81  1  0
 29 82  1  0
 31 83  1  0
 33 84  1  0
 35 85  1  0
 36 86  1  0
 37 87  1  0
 38 88  1  0
 40 89  1  0
 42 90  1  0
 44 91  1  0
 46 92  1  0
 48 93  1  0
 50 94  1  0
 51 95  1  0
 52 96  1  0
 53 97  1  0
 55 98  1  0
 57 99  1  0
 59100  1  0
 61101  1  0
 63102  1  0
 65103  1  0
 66104  1  0
M  END
