
     RDKit          3D

104118  0  0  0  0  0  0  0  0999 V2000
    4.7116    8.3056    0.6899 C   0  0  0  0  0  0  0  0  0  0  0  0
    5.4024    7.1582    1.0826 C   0  0  0  0  0  0  0  0  0  0  0  0
    4.7951    5.8933    1.0111 C   0  0  0  0  0  0  0  0  0  0  0  0
    5.4767    4.7294    1.4031 C   0  0  0  0  0  0  0  0  0  0  0  0
    4.8681    3.4648    1.3343 C   0  0  0  0  0  0  0  0  0  0  0  0
    5.5493    2.3014    1.7301 C   0  0  0  0  0  0  0  0  0  0  0  0
    4.9399    1.0368    1.6651 C   0  0  0  0  0  0  0  0  0  0  0  0
    5.6156   -0.1268    2.0650 C   0  0  0  0  0  0  0  0  0  0  0  0
    5.0062   -1.3917    2.0047 C   0  0  0  0  0  0  0  0  0  0  0  0
    5.7093   -2.5339    2.4172 C   0  0  0  0  0  0  0  0  0  0  0  0
    5.1232   -3.7954    2.3659 C   0  0  0  0  0  0  0  0  0  0  0  0
    3.8215   -3.9319    1.8982 C   0  0  0  0  0  0  0  0  0  0  0  0
    3.0839   -2.8094    1.4745 C   0  0  0  0  0  0  0  0  0  0  0  0
    1.6957   -3.0276    0.9784 C   0  0  0  0  0  0  0  0  0  0  0  0
    1.4794   -3.2972   -0.4089 C   0  0  0  0  0  0  0  0  0  0  0  0
    2.5435   -3.3509   -1.3497 C   0  0  0  0  0  0  0  0  0  0  0  0
    2.3509   -3.6116   -2.7151 C   0  0  0  0  0  0  0  0  0  0  0  0
    3.4248   -3.6584   -3.6214 C   0  0  0  0  0  0  0  0  0  0  0  0
    3.2054   -3.9166   -4.9750 C   0  0  0  0  0  0  0  0  0  0  0  0
    1.9112   -4.1303   -5.4379 C   0  0  0  0  0  0  0  0  0  0  0  0
    0.8383   -4.0863   -4.5465 C   0  0  0  0  0  0  0  0  0  0  0  0
    1.0481   -3.8281   -3.1808 C   0  0  0  0  0  0  0  0  0  0  0  0
   -0.0135   -3.7782   -2.2639 C   0  0  0  0  0  0  0  0  0  0  0  0
    0.1656   -3.5179   -0.8782 C   0  0  0  0  0  0  0  0  0  0  0  0
   -0.9281   -3.4706    0.0414 C   0  0  0  0  0  0  0  0  0  0  0  0
   -2.3106   -3.7366   -0.4475 C   0  0  0  0  0  0  0  0  0  0  0  0
   -3.1764   -2.6976   -0.9013 C   0  0  0  0  0  0  0  0  0  0  0  0
   -2.8099   -1.3311   -0.9312 C   0  0  0  0  0  0  0  0  0  0  0  0
   -3.6849   -0.3256   -1.3790 C   0  0  0  0  0  0  0  0  0  0  0  0
   -3.3037    1.0271   -1.3987 C   0  0  0  0  0  0  0  0  0  0  0  0
   -4.1802    2.0304   -1.8462 C   0  0  0  0  0  0  0  0  0  0  0  0
   -3.7998    3.3832   -1.8671 C   0  0  0  0  0  0  0  0  0  0  0  0
   -4.6781    4.3848   -2.3134 C   0  0  0  0  0  0  0  0  0  0  0  0
   -4.2993    5.7373   -2.3344 C   0  0  0  0  0  0  0  0  0  0  0  0
   -5.1840    6.7204   -2.7806 C   0  0  0  0  0  0  0  0  0  0  0  0
   -6.4581    6.3645   -3.2112 C   0  0  0  0  0  0  0  0  0  0  0  0
   -6.8494    5.0249   -3.1965 C   0  0  0  0  0  0  0  0  0  0  0  0
   -5.9703    4.0242   -2.7505 C   0  0  0  0  0  0  0  0  0  0  0  0
   -6.3494    2.6721   -2.7300 C   0  0  0  0  0  0  0  0  0  0  0  0
   -5.4700    1.6713   -2.2836 C   0  0  0  0  0  0  0  0  0  0  0  0
   -5.8498    0.3191   -2.2636 C   0  0  0  0  0  0  0  0  0  0  0  0
   -4.9715   -0.6825   -1.8164 C   0  0  0  0  0  0  0  0  0  0  0  0
   -5.3496   -2.0336   -1.7953 C   0  0  0  0  0  0  0  0  0  0  0  0
   -4.4757   -3.0379   -1.3465 C   0  0  0  0  0  0  0  0  0  0  0  0
   -4.8903   -4.3784   -1.3383 C   0  0  0  0  0  0  0  0  0  0  0  0
   -4.0426   -5.3889   -0.8948 C   0  0  0  0  0  0  0  0  0  0  0  0
   -2.7641   -5.0704   -0.4525 C   0  0  0  0  0  0  0  0  0  0  0  0
   -0.7129   -3.1879    1.4263 C   0  0  0  0  0  0  0  0  0  0  0  0
   -1.7784   -3.1158    2.3640 C   0  0  0  0  0  0  0  0  0  0  0  0
   -1.5869   -2.8373    3.7262 C   0  0  0  0  0  0  0  0  0  0  0  0
   -2.6625   -2.7703    4.6288 C   0  0  0  0  0  0  0  0  0  0  0  0
   -2.4455   -2.4908    5.9787 C   0  0  0  0  0  0  0  0  0  0  0  0
   -1.1519   -2.2747    6.4419 C   0  0  0  0  0  0  0  0  0  0  0  0
   -0.0771   -2.3376    5.5539 C   0  0  0  0  0  0  0  0  0  0  0  0
   -0.2843   -2.6193    4.1921 C   0  0  0  0  0  0  0  0  0  0  0  0
    0.7788   -2.6875    3.2780 C   0  0  0  0  0  0  0  0  0  0  0  0
    0.6010   -2.9670    1.8958 C   0  0  0  0  0  0  0  0  0  0  0  0
    3.6801   -1.5147    1.5272 C   0  0  0  0  0  0  0  0  0  0  0  0
    3.0143   -0.3327    1.1257 C   0  0  0  0  0  0  0  0  0  0  0  0
    3.6217    0.9328    1.1903 C   0  0  0  0  0  0  0  0  0  0  0  0
    2.9395    2.0951    0.7928 C   0  0  0  0  0  0  0  0  0  0  0  0
    3.5462    3.3607    0.8600 C   0  0  0  0  0  0  0  0  0  0  0  0
    2.8635    4.5241    0.4659 C   0  0  0  0  0  0  0  0  0  0  0  0
    3.4706    5.7893    0.5357 C   0  0  0  0  0  0  0  0  0  0  0  0
    2.7888    6.9535    0.1438 C   0  0  0  0  0  0  0  0  0  0  0  0
    3.4058    8.2032    0.2206 C   0  0  0  0  0  0  0  0  0  0  0  0
    5.1938    9.2777    0.7510 H   0  0  0  0  0  0  0  0  0  0  0  0
    6.4224    7.2589    1.4470 H   0  0  0  0  0  0  0  0  0  0  0  0
    6.4985    4.8095    1.7693 H   0  0  0  0  0  0  0  0  0  0  0  0
    6.5710    2.3820    2.0971 H   0  0  0  0  0  0  0  0  0  0  0  0
    6.6370   -0.0447    2.4336 H   0  0  0  0  0  0  0  0  0  0  0  0
    6.7296   -2.4486    2.7859 H   0  0  0  0  0  0  0  0  0  0  0  0
    5.6811   -4.6705    2.6887 H   0  0  0  0  0  0  0  0  0  0  0  0
    3.3718   -4.9228    1.8589 H   0  0  0  0  0  0  0  0  0  0  0  0
    3.5660   -3.1793   -1.0150 H   0  0  0  0  0  0  0  0  0  0  0  0
    4.4425   -3.4913   -3.2754 H   0  0  0  0  0  0  0  0  0  0  0  0
    4.0440   -3.9485   -5.6655 H   0  0  0  0  0  0  0  0  0  0  0  0
    1.7345   -4.3291   -6.4912 H   0  0  0  0  0  0  0  0  0  0  0  0
   -0.1679   -4.2528   -4.9245 H   0  0  0  0  0  0  0  0  0  0  0  0
   -1.0170   -3.9455   -2.6537 H   0  0  0  0  0  0  0  0  0  0  0  0
   -1.8161   -1.0382   -0.5956 H   0  0  0  0  0  0  0  0  0  0  0  0
   -2.3064    1.3020   -1.0583 H   0  0  0  0  0  0  0  0  0  0  0  0
   -2.8030    3.6619   -1.5305 H   0  0  0  0  0  0  0  0  0  0  0  0
   -3.3080    6.0365   -2.0019 H   0  0  0  0  0  0  0  0  0  0  0  0
   -4.8770    7.7629   -2.7911 H   0  0  0  0  0  0  0  0  0  0  0  0
   -7.1487    7.1283   -3.5590 H   0  0  0  0  0  0  0  0  0  0  0  0
   -7.8495    4.7665   -3.5372 H   0  0  0  0  0  0  0  0  0  0  0  0
   -7.3464    2.3949   -3.0675 H   0  0  0  0  0  0  0  0  0  0  0  0
   -6.8468    0.0416   -2.6011 H   0  0  0  0  0  0  0  0  0  0  0  0
   -6.3470   -2.3084   -2.1350 H   0  0  0  0  0  0  0  0  0  0  0  0
   -5.8874   -4.6479   -1.6808 H   0  0  0  0  0  0  0  0  0  0  0  0
   -4.3785   -6.4226   -0.8937 H   0  0  0  0  0  0  0  0  0  0  0  0
   -2.1078   -5.8675   -0.1064 H   0  0  0  0  0  0  0  0  0  0  0  0
   -2.8020   -3.2765    2.0274 H   0  0  0  0  0  0  0  0  0  0  0  0
   -3.6806   -2.9349    4.2825 H   0  0  0  0  0  0  0  0  0  0  0  0
   -3.2865   -2.4408    6.6652 H   0  0  0  0  0  0  0  0  0  0  0  0
   -0.9777   -2.0553    7.4919 H   0  0  0  0  0  0  0  0  0  0  0  0
    0.9284   -2.1634    5.9308 H   0  0  0  0  0  0  0  0  0  0  0  0
    1.7815   -2.5107    3.6658 H   0  0  0  0  0  0  0  0  0  0  0  0
    1.9926   -0.3957    0.7540 H   0  0  0  0  0  0  0  0  0  0  0  0
    1.9175    2.0116    0.4268 H   0  0  0  0  0  0  0  0  0  0  0  0
    1.8420    4.4442    0.0997 H   0  0  0  0  0  0  0  0  0  0  0  0
    1.7674    6.8947   -0.2255 H   0  0  0  0  0  0  0  0  0  0  0  0
    2.8657    9.0952   -0.0858 H   0  0  0  0  0  0  0  0  0  0  0  0
  1  2  4  0
  2  3  4  0
  3  4  4  0
  4  5  4  0
  5  6  4  0
  6  7  4  0
  7  8  4  0
  8  9  4  0
  9 10  4  0
 10 11  4  0
 11 12  4  0
 12 13  4  0
 13 14  1  0
 14 15  4  0
 15 16  4  0
 16 17  4  0
 17 18  4  0
 18 19  4  0
 19 20  4  0
 20 21  4  0
 21 22  4  0
 22 23  4  0
 23 24  4  0
 24 25  4  0
 25 26  1  0
 26 27  4  0
 27 28  4  0
 28 29  4  0
 29 30  4  0
 30 31  4  0
 31 32  4  0
 32 33  4  0
 33 34  4  0
 34 35  4  0
 35 36  4  0
 36 37  4  0
 37 38  4  0
 38 39  4  0
 39 40  4  0
 40 41  4  0
 41 42  4  0
 42 43  4  0
 43 44  4  0
 44 45  4  0
 45 46  4  0
 46 47  4  0
 25 48  4  0
 48 49  4  0
 49 50  4  0
 50 51  4  0
 51 52  4  0
 52 53  4  0
 53 54  4  0
 54 55  4  0
 55 56  4  0
 56 57  4  0
 13 58  4  0
 58 59  4  0
 59 60  4  0
 60 61  4  0
 61 62  4  0
 62 63  4  0
 63 64  4  0
 64 65  4  0
 65 66  4  0
 66  1  4  0
 64  3  4  0
 62  5  4  0
 60  7  4  0
 58  9  4  0
 57 14  4  0
 24 15  4  0
 47 26  4  0
 57 48  4  0
 22 17  4  0
 44 27  4  0
 55 50  4  0
 42 29  4  0
 40 31  4  0
 38 33  4  0
  1 67  1  0
  2 68  1  0
  4 69  1  0
  6 70  1  0
  8 71  1  0
 10 72  1  0
 11 73  1  0
 12 74  1  0
 16 75  1  0
 18 76  1  0
 19 77  1  0
 20 78  1  0
 21 79  1  0
 23 80  1  0
 28 81  1  0
 30 82  1  0
 32 83  1  0
 34 84  1  0
 35 85  1  0
 36 86  1  0
 37 87  1  0
 39 88  1  0
 41 89  1  0
 43 90  1  0
 45 91  1  0
 46 92  1  0
 47 93  1  0
 49 94  1  0
 51 95  1  0
 52 96  1  0
 53 97  1  0
 54 98  1  0
 56 99  1  0
 59100  1  0
 61101  1  0
 63102  1  0
 65103  1  0
 66104  1  0
M  END
